19
./S66x8/11.200
N    -4.3839658    0.1312671   -0.1269400 
H    -3.6833798   -0.1216947   -0.8156523 
H    -5.2755097   -0.1561906   -0.5084677 
C    -4.1197719   -0.6173951    1.1007540 
H    -4.8714070   -0.3688352    1.8479217 
H    -4.1022811   -1.7053979    0.9868085 
H    -3.1537998   -0.3145962    1.5022045 
C     1.4407672    1.7938448   -0.7883898 
H     1.5653857    2.2050216   -1.7874342 
H     1.9473386    2.4348374   -0.0706053 
H     0.3743554    1.7673153   -0.5699684 
C     1.9527589    0.3760471   -0.7860958 
O     1.4927790   -0.4896893   -1.5252704 
N     2.9392419    0.1030148    0.1062349 
H     3.3390029    0.8579476    0.6315877 
C     3.5276872   -1.2165757    0.1837345 
H     2.7395106   -1.9579059    0.0907139 
H     4.2489470   -1.3885711   -0.6148099 
H     4.0223407   -1.3324439    1.1436740 
