14
./S66x8/10.125
N    -1.7499236    0.2457153   -0.7848920 
H    -0.9213279   -0.3391382   -0.8352340 
H    -2.4117512   -0.1439443   -1.4431289 
C    -2.3099411    0.1661975    0.5624862 
H    -3.2040200    0.7840436    0.6237071 
H    -2.5740278   -0.8410447    0.8999918 
H    -1.5915578    0.5734738    1.2716269 
N     1.8795902   -0.7722642   -0.5780622 
H     2.1758589   -0.4977264   -1.5060474 
H     2.5031399   -1.5199545   -0.3028673 
C     2.0398202    0.3629464    0.3356131 
H     1.7696299    0.0482507    1.3412662 
H     3.0472305    0.7847230    0.3725848 
H     1.3472798    1.1487219    0.0429559 
