29
./S66x8/43.110
N     0.6912397   -0.9971186   -2.4004805 
H     0.4743484   -1.9577065   -2.1719947 
C    -0.3672977   -0.2335417   -2.9117324 
O    -1.4656132   -0.7346091   -3.0828036 
C    -0.0017162    1.1450693   -3.1867588 
H    -0.7445851    1.8056045   -3.5992358 
C     1.2487005    1.5717291   -2.9158629 
H     1.5670087    2.5876647   -3.0965633 
N     2.1992883    0.7403957   -2.3873144 
H     3.1204944    1.0776954   -2.1629684 
C     1.9679416   -0.5893844   -2.0780844 
O     2.8089648   -1.3101295   -1.5778089 
C    -0.6765981   -0.1829178    1.8560847 
C    -1.9933443    0.5583710    2.0709576 
H    -2.7004157   -0.0598352    2.6258200 
H    -1.8338447    1.4785556    2.6351426 
H    -2.4510540    0.8198681    1.1158040 
C    -0.0611615   -0.5363557    3.2073622 
H     0.8820007   -1.0687290    3.0765803 
H     0.1358595    0.3633860    3.7921643 
H    -0.7324555   -1.1740927    3.7840989 
C     0.2885262    0.7105601    1.0802956 
H     1.2370967    0.1979653    0.9099416 
H     0.4938164    1.6286965    1.6337220 
H    -0.1338692    0.9890467    0.1128312 
C    -0.9379153   -1.4629522    1.0657198 
H    -1.4016537   -1.2411185    0.1030952 
H    -0.0053390   -2.0013511    0.8860832 
H    -1.6084231   -2.1247661    1.6159048 
