12
./S66x8/53A
C     1.2072950    0.6970321    0.0000000 
H     2.1435067    1.2375542    0.0000000 
C     1.2072950   -0.6970321    0.0000000 
H     2.1435067   -1.2375542    0.0000000 
C     0.0000000   -1.3940642    0.0000000 
H     0.0000000   -2.4751084    0.0000000 
C    -1.2072950   -0.6970321    0.0000000 
H    -2.1435067   -1.2375542    0.0000000 
C    -1.2072950    0.6970321    0.0000000 
H    -2.1435067    1.2375542    0.0000000 
C     0.0000000    1.3940642    0.0000000 
H     0.0000000    2.4751084    0.0000000 
