15
./NCIBLIND10/26
C     1.2101833    0.6986941   -0.9443689 
C     1.2101833   -0.6986941   -0.9443689 
C     0.0000000   -1.3973863   -0.9443683 
C    -1.2101833   -0.6986941   -0.9443689 
C    -1.2101833    0.6986941   -0.9443689 
C     0.0000000    1.3973863   -0.9443683 
H     2.1549316   -1.2441533   -0.9443668 
H     0.0000000   -2.4882873   -0.9443675 
H    -2.1549316   -1.2441533   -0.9443668 
H    -2.1549316    1.2441533   -0.9443668 
H     0.0000000    2.4882873   -0.9443675 
H     2.1549316    1.2441533   -0.9443668 
H    -0.0000000    0.7654654    3.5787175 
H    -0.0000000   -0.7654654    3.5787175 
O     0.0000000    0.0000000    4.1749795 
