12
./S66x8/24B
C     1.2070048    0.6968645    0.0000000 
H     2.1438169    1.2377332    0.0000000 
C     1.2070048   -0.6968645    0.0000000 
H     2.1438169   -1.2377332    0.0000000 
C     0.0000000   -1.3937291    0.0000000 
H     0.0000000   -2.4754665    0.0000000 
C    -1.2070048   -0.6968645    0.0000000 
H    -2.1438169   -1.2377332    0.0000000 
C    -1.2070048    0.6968645    0.0000000 
H    -2.1438169    1.2377332    0.0000000 
C     0.0000000    1.3937291    0.0000000 
H     0.0000000    2.4754665    0.0000000 
