20
./S66x8/63.150
C     0.8417577    1.1126463   -2.0319599 
H     1.4814712    1.9844888   -2.0180421 
C     1.3530574   -0.1305267   -1.6632779 
H     2.3850303   -0.2216624   -1.3546362 
C     0.5278751   -1.2538630   -1.6792871 
H     0.9234696   -2.2187371   -1.3930164 
C    -0.8078590   -1.1344867   -2.0602048 
H    -1.4477368   -2.0062638   -2.0690454 
C    -1.3186156    0.1095734   -2.4283376 
H    -2.3542622    0.2025135   -2.7257406 
C    -0.4930689    1.2330676   -2.4152428 
H    -0.8886510    2.1978831   -2.7022558 
C     0.4841857   -0.2403256    3.1765465 
O     1.6796783   -0.0763749    3.2530623 
O    -0.0953160   -1.4517306    3.3759849 
H     0.6391349   -2.0528391    3.5690230 
C    -0.5376986    0.8036059    2.8558653 
H    -0.0594041    1.7745523    2.8090426 
H    -0.9904987    0.5704097    1.8931573 
H    -1.3225496    0.7980694    3.6083648 
