19
./S66x8/56.90
C     0.9558640    1.2639520   -1.2966128 
H     1.5454976    2.1676068   -1.3689382 
C     1.5817360    0.0187899   -1.3345579 
H     2.6566922   -0.0438164   -1.4330472 
C     0.8215672   -1.1462904   -1.2400542 
H     1.3074680   -2.1119138   -1.2638386 
C    -0.5640036   -1.0657619   -1.1097690 
H    -1.1531522   -1.9695915   -1.0361147 
C    -1.1898626    0.1793315   -1.0730729 
H    -2.2646838    0.2413627   -0.9716115 
C    -0.4299122    1.3440611   -1.1652249 
H    -0.9151865    2.3100699   -1.1357272 
N     0.5657334   -0.0219599    1.9612300 
H     0.7003517    0.0220806    0.9581587 
H     0.7072259    0.9231868    2.2937023 
C    -0.8103661   -0.4283433    2.2386658 
H    -0.9682427   -0.4568903    3.3152214 
H    -1.5816683    0.2120375    1.7985468 
H    -0.9650581   -1.4379111    1.8630441 
