32
./NCIBLIND10/47
C     5.0988668   -1.6382141   -0.5683232 
H     5.5164349   -2.3041570   -1.3343479 
H     4.6047173   -0.7851476   -1.0635627 
C     4.1001375   -2.3755483    0.3320142 
H     3.9285242   -1.8034073    1.2505519 
H     4.4702147   -3.3781077    0.6044595 
N     1.6801008   -2.7120048    0.3665049 
N     7.4072613   -0.9081500   -0.3733994 
N     2.8174428   -2.4407896   -0.3801195 
H     2.7680518   -3.0148307   -1.2234358 
N     6.2034881   -1.1991356    0.2869033 
H     5.9804238   -0.3779198    0.8559143 
O     7.6560261   -1.5257219   -1.4113794 
O     8.1393555   -0.0948243    0.1952316 
O     1.6902710   -2.3934987    1.5652880 
O     0.7154222   -3.1717137   -0.2541171 
C    -5.2184322    1.7097205    0.3842452 
H    -5.0948899    0.7518520    0.9063153 
H    -5.5926095    2.4614650    1.1020491 
C    -3.8979468    2.1640192   -0.2394068 
H    -4.0162790    3.1177576   -0.7745571 
H    -3.5276596    1.4102047   -0.9543006 
N    -1.6468933    2.6321583    0.4637168 
N    -7.4088045    0.9930667   -0.3416188 
N    -2.9441884    2.3750633    0.8540743 
H    -2.9149878    1.6547694    1.5816183 
N    -6.1518502    1.4883162   -0.7220961 
H    -6.3349338    2.2937217   -1.3233977 
O    -7.4654256    0.3519043    0.7085415 
O    -8.3285922    1.2101208   -1.1343841 
O    -1.4665799    3.0725368   -0.6773953 
O    -0.7666664    2.4364945    1.3184132 
