10
./S22x5/08_1.5
C    -1.4349442   -1.2366439    0.0000000 
O    -0.9950095    0.0018767    0.0000000 
O    -0.7520306   -2.2484654    0.0000000 
H    -2.5276604   -1.2769505    0.0000000 
H     0.0000000    0.0000000    0.0000000 
C     3.1883998   -1.0118215    0.0000000 
O     2.7484651   -2.2503421    0.0000000 
O     2.5054863    0.0000000    0.0000000 
H     4.2811161   -0.9715149    0.0000000 
H     1.7534557   -2.2484654    0.0000000 
