16
./NCIBLIND10/71
C     2.7156493    0.7776250    0.0000000 
H     2.5900068    1.8659060    0.0000000 
H     3.2569547    0.4446636   -0.8963449 
H     3.2569547    0.4446636    0.8963449 
O     1.3689433    0.2377346    0.0000000 
C     1.3268325   -1.1230617    0.0000000 
O     2.3073814   -1.8460256    0.0000000 
H     0.2760722   -1.4570481    0.0000000 
C    -1.6329346    0.9892491    0.0000000 
H    -1.8617590    2.0600697    0.0000000 
H    -1.0641886    0.7081587   -0.8957646 
H    -1.0641886    0.7081587    0.8957646 
O    -2.9279796    0.3265363    0.0000000 
C    -2.8530982   -1.0182296    0.0000000 
O    -1.8240183   -1.6744123    0.0000000 
H    -3.8706278   -1.4439879    0.0000000 
