28
./S22x5/16_2.0
C     0.0000000    0.0000000    0.0000000 
C    -0.0444856   -1.1779785    0.7431600 
C    -0.0108246   -2.4112083    0.0953331 
C     0.0641508   -2.4669336   -1.2956235 
C     0.1009509   -1.2874370   -2.0389598 
C     0.0673568   -0.0535002   -1.3913762 
H    -0.0137977    0.9568815    0.5033483 
H    -0.0913470   -1.1344579    1.8223988 
H    -0.0397540   -3.3256800    0.6723586 
H     0.0853895   -3.4248488   -1.7983737 
H     0.1464428   -1.3301724   -3.1195145 
H     0.1008528    0.8624562   -1.9649454 
H     6.2949382   -0.5780568    3.4949045 
C     6.3706805   -0.5719698    2.4157538 
C     6.3302265    0.6336501    1.7343494 
H     6.2231080    1.5670384    2.2720359 
C     6.4329770    0.6243475    0.3333396 
C     6.4228097    1.6336619   -0.6734992 
H     6.3391858    2.6980304   -0.5332517 
C     6.5533967    0.9928081   -1.8845173 
N     6.6591023   -0.3600866   -1.6754228 
C     6.5749224   -0.6243475   -0.3333396 
C     6.6234602   -1.8398428    0.3517549 
H     6.7302791   -2.7802177   -0.1729402 
C     6.5186890   -1.7962115    1.7330360 
H     6.5503206   -2.7182612    2.2976348 
H     6.6810484   -1.0564461   -2.3989786 
H     6.5896137    1.3980362   -2.8818075 
