14
./S66x8/18.110
O    -3.7871533   -0.1762157    0.0000000 
H    -4.1060820    0.7272739    0.0000000 
H    -2.8216628   -0.0763505    0.0000000 
N    -0.6292797    0.0342651    0.0000000 
C     0.0665511    0.0002672    1.1449095 
H    -0.5181817    0.0238566    2.0557394 
C     1.4555714   -0.0649164    1.1949960 
H     1.9614146   -0.0897931    2.1493580 
C     2.1668136   -0.0980140    0.0000000 
H     3.2466536   -0.1497875    0.0000000 
C     1.4555714   -0.0649164   -1.1949960 
H     1.9614146   -0.0897931   -2.1493580 
C     0.0665511    0.0002672   -1.1449095 
H    -0.5181817    0.0238566   -2.0557394 
