26
./S22x5/19_1.2
C    -1.4459672   -1.2210658    0.2658087 
O    -0.9452298   -0.0473181   -0.2094675 
H     0.0000000    0.0000000    0.0000000 
C    -0.6831426   -2.1277850    1.0051089 
C    -1.2577983   -3.3140907    1.4565406 
C    -2.5906275   -3.6054276    1.1790516 
C    -3.3485004   -2.6951166    0.4432861 
C    -2.7825492   -1.5097018   -0.0132872 
H     0.3527864   -1.9054638    1.2247810 
H    -0.6563491   -4.0095757    2.0262312 
H    -3.0329930   -4.5263840    1.5310849 
H    -4.3855126   -2.9073172    0.2210179 
H    -3.3578887   -0.7960170   -0.5862349 
O     2.3246519    0.0000000    0.0000000 
C     2.9231443   -1.1428987   -0.4837324 
H     2.9240013    0.4176044    0.6280411 
C     2.2266479   -1.8676225   -1.4472114 
C     2.7859025   -3.0359126   -1.9545678 
C     4.0304588   -3.4793501   -1.5096473 
C     4.7177722   -2.7446962   -0.5474103 
C     4.1654722   -1.5749525   -0.0294367 
H     1.2626177   -1.5130284   -1.7844669 
H     2.2428920   -3.6000821   -2.6998960 
H     4.4591187   -4.3875110   -1.9082041 
H     5.6837857   -3.0774969   -0.1940051 
H     4.6974526   -1.0042516    0.7223331 
