18
./S66x8/64.150
C     1.6187220    0.2913087   -1.5870112 
H     1.6305806    1.2475341   -2.1052059 
H     2.3043264   -0.3952585   -2.0747094 
H     1.9587529    0.4376564   -0.5631420 
C     0.2508350   -0.3445651   -1.5425608 
O     0.0882599   -1.5213199   -1.2452831 
N    -0.7844950    0.4908083   -1.8350471 
H    -0.5800042    1.4548529   -2.0229374 
C    -2.1610049    0.0542648   -1.7620698 
H    -2.1557304   -1.0311113   -1.7562109 
H    -2.6515360    0.4041165   -0.8535186 
H    -2.7187367    0.4090473   -2.6253836 
C     0.1512868    0.2934392    3.2947722 
H     0.1464053    1.0356130    4.0806548 
H    -0.4972459    0.4612078    2.4460887 
C     0.9197971   -0.7935228    3.3645819 
H     1.5651021   -0.9653484    4.2147097 
H     0.9146851   -1.5287229    2.5722726 
