12
./S66x8/60.90
C    -2.3374134    1.0687982    0.0000000 
H    -1.6194725    1.8541629    0.0000000 
C    -3.1131187    0.1361260    0.0000000 
H    -3.8075393   -0.6675665    0.0000000 
C     0.9248873    0.0924418    0.0000000 
O     0.6707007    1.2767105    0.0000000 
O    -0.0230114   -0.8676979    0.0000000 
H    -0.8840130   -0.4131585    0.0000000 
C     2.3005263   -0.5028640    0.0000000 
H     3.0389135    0.2897065    0.0000000 
H     2.4247703   -1.1333295    0.8799631 
H     2.4247703   -1.1333295   -0.8799631 
