29
./S66x8/46.110
C     1.3977961    0.8507187   -2.1952752 
H     0.9777814    1.8522909   -2.1329826 
H     1.9730268    0.7647569   -3.1153821 
H     2.0773072    0.6900665   -1.3631474 
C     0.3523422   -0.2394059   -2.1779011 
O     0.6444264   -1.4142400   -1.9948186 
N    -0.9244237    0.1831281   -2.3921849 
H    -1.0790664    1.1602668   -2.5599877 
C    -2.0342493   -0.7391276   -2.4859464 
H    -1.6437509   -1.7285547   -2.2689156 
H    -2.8089866   -0.4931390   -1.7624384 
H    -2.4653654   -0.7406835   -3.4860391 
C     2.7119631    0.3189700    1.9882143 
H     2.8288024    1.0733858    1.2094695 
H     2.6258527    0.8438563    2.9398704 
H     3.6240545   -0.2752720    2.0150223 
C     1.4836909   -0.5444176    1.7306628 
H     1.3891215   -1.2898716    2.5237136 
H     1.6001110   -1.0978819    0.7968190 
C     0.2011530    0.2741964    1.6653614 
H     0.0895827    0.8519313    2.5884451 
H     0.2803872    1.0070113    0.8557088 
C    -1.0432033   -0.5761388    1.4484815 
H    -1.1340052   -1.2906253    2.2698987 
H    -0.9153963   -1.1650766    0.5382671 
C    -2.3100418    0.2641527    1.3583668 
H    -2.2431285    0.9712036    0.5305976 
H    -3.1953840   -0.3518648    1.2045339 
H    -2.4603978    0.8403638    2.2715864 
