15
./NCIBLIND10/22
C     1.2101833    0.6986941   -0.5443617 
C     1.2101833   -0.6986941   -0.5443617 
C     0.0000000   -1.3973863   -0.5443606 
C    -1.2101833   -0.6986941   -0.5443617 
C    -1.2101833    0.6986941   -0.5443617 
C     0.0000000    1.3973863   -0.5443606 
H     2.1549316   -1.2441533   -0.5443581 
H     0.0000000   -2.4882873   -0.5443592 
H    -2.1549316   -1.2441533   -0.5443581 
H    -2.1549316    1.2441533   -0.5443581 
H     0.0000000    2.4882873   -0.5443592 
H     2.1549316    1.2441533   -0.5443581 
H    -0.0000000    0.7654654    1.9786854 
H    -0.0000000   -0.7654654    1.9786854 
O     0.0000000    0.0000000    2.5749479 
