18
./S66x8/21.105
C    -2.0982699    0.0569408   -0.0829761 
O    -1.5138206    1.0319123    0.3949076 
N    -1.4541413   -1.0281806   -0.5498002 
H    -0.4339375   -1.0717872   -0.5171150 
H    -1.9721472   -1.7968350   -0.9285618 
C    -3.6052395    0.0327633   -0.1684117 
H    -4.0091491    0.1393061    0.8352767 
H    -3.9979477   -0.8746013   -0.6197058 
H    -3.9316783    0.8933603   -0.7466989 
C     2.0982699   -0.0569408    0.0829761 
O     1.5138206   -1.0319123   -0.3949076 
N     1.4541413    1.0281806    0.5498002 
H     0.4339375    1.0717872    0.5171150 
H     1.9721472    1.7968350    0.9285618 
C     3.6052395   -0.0327633    0.1684117 
H     3.9979477    0.8746013    0.6197058 
H     4.0091491   -0.1393061   -0.8352767 
H     3.9316783   -0.8933603    0.7466989 
