12
./S22x5/18A
O    -1.3976209   -1.8858369   -0.3673060 
N    -1.4642549    0.3641830    0.0192300 
C    -4.1857397    0.3696670    0.0360960 
C    -3.4832597    1.5783109    0.2500750 
C    -2.1179498    1.5307049    0.2338380 
C    -2.0773828   -0.8637489   -0.1899410 
C    -3.5156027   -0.8051949   -0.1757590 
H    -5.2678036    0.3707430    0.0411420 
H    -3.9920327    2.5127558    0.4214410 
H    -1.4929199    2.3984098    0.3885020 
H    -4.0401227   -1.7348449   -0.3379270 
H    -0.4265270    0.3612130    0.0073540 
