7
./S66x8/10A
N     0.9175496   -0.0797868    0.0000000 
H     1.1235261   -0.6520284    0.8112270 
H     1.1235261   -0.6520284   -0.8112270 
C    -0.5045366    0.2564287    0.0000000 
H    -0.7365477    0.8634091   -0.8752793 
H    -1.1869696   -0.5994033    0.0000000 
H    -0.7365477    0.8634091    0.8752793 
