16
./NCIBLIND10/4A
C     4.6355629   -1.4502155   -0.5639331 
H     5.0531309   -2.1161583   -1.3299578 
H     4.1414133   -0.5971490   -1.0591726 
C     3.6368336   -2.1875497    0.3364043 
H     3.4652203   -1.6154087    1.2549420 
H     4.0069107   -3.1901090    0.6088496 
N     1.2167969   -2.5240062    0.3708950 
N     6.9439574   -0.7201514   -0.3690093 
N     2.3541389   -2.2527910   -0.3757294 
H     2.3047479   -2.8268320   -1.2190457 
N     5.7401842   -1.0111370    0.2912934 
H     5.5171199   -0.1899212    0.8603044 
O     7.1927222   -1.3377233   -1.4069893 
O     7.6760515    0.0931743    0.1996217 
O     1.2269671   -2.2055000    1.5696781 
O     0.2521183   -2.9837151   -0.2497270 
