12
./S66x8/22B
N     0.5203488   -1.1933923    0.0000000 
H     0.9135780   -2.1247396    0.0000000 
C     1.4419301   -0.1297322    0.0000000 
O     2.6391446   -0.3539780    0.0000000 
C     0.8028293    1.1721399    0.0000000 
H     1.4224018    2.0521724    0.0000000 
C    -0.5443331    1.2561089    0.0000000 
H    -1.0672025    2.2009436    0.0000000 
N    -1.3481116    0.1489664    0.0000000 
H    -2.3722206    0.2220514    0.0000000 
C    -0.8481479   -1.1229857    0.0000000 
O    -1.5602170   -2.1275548    0.0000000 
