12
./S66x8/05.105
O    -1.5914370    0.4604898   -0.2105918 
H    -0.6472047    0.4366935   -0.4147275 
C    -2.1073675   -0.8275156   -0.4759316 
H    -3.1652471   -0.8124932   -0.2272353 
H    -2.0119124   -1.1088986   -1.5273818 
H    -1.6301379   -1.6025005    0.1293203 
O     1.3826990    0.3566176   -0.5092337 
H     1.8514884    0.9710021   -1.0788997 
C     1.8915330    0.5136365    0.8124836 
H     1.3379639   -0.1745599    1.4426145 
H     2.9505291    0.2631976    0.8692068 
H     1.7390933    1.5243306    1.1903762 
