17
./NCIBLIND10/17
C     0.7028831    1.2174292    2.5882842 
C     1.4057691    0.0000000    2.5882853 
C     0.7028831   -1.2174292    2.5882842 
C    -0.7028846   -1.2174318    2.5882853 
C    -1.4057662    0.0000000    2.5882842 
C    -0.7028846    1.2174318    2.5882853 
H     1.2504987    2.1659272    2.5882835 
H     2.5010030    0.0000000    2.5882856 
H     1.2504987   -2.1659272    2.5882835 
H    -1.2505015   -2.1659321    2.5882856 
H    -2.5009973    0.0000000    2.5882835 
H    -1.2505015    2.1659321    2.5882856 
C    -0.0000000    0.0000000   -6.2118848 
H    -0.0000000    0.0000000   -5.1123536 
H     0.5183252    0.8977655   -6.5783925 
H    -1.0366503    0.0000000   -6.5783925 
H     0.5183252   -0.8977655   -6.5783925 
