15
./S66x8/04.125
O    -3.6728283    0.4000019    0.1686574 
H    -4.1922707    1.1985327    0.2702348 
H    -2.7559060    0.7162360    0.1830974 
C    -0.5664488   -1.4058608   -0.1465602 
H     0.0835140   -2.2669727   -0.2794755 
H    -1.2474248   -1.3283888   -0.9904254 
H    -1.1794657   -1.5446568    0.7404482 
C     0.1882832   -0.1078480   -0.0139666 
O    -0.3884322    0.9674469    0.1426221 
N     1.5389164   -0.2053507   -0.0785846 
H     1.9398680   -1.1158846   -0.2080997 
C     2.4071585    0.9466198    0.0308585 
H     1.7706643    1.8149202    0.1656431 
H     3.0727480    0.8551646    0.8869513 
H     3.0016242    1.0760403   -0.8714007 
