18
./S66x8/07.90
O    -2.2435818   -0.5950080   -1.0633813 
H    -1.3236785   -0.7650291   -0.8049377 
C    -3.0569778   -1.1193085   -0.0364295 
H    -4.0922956   -0.9168447   -0.2995726 
H    -2.9425478   -2.1999636    0.0775618 
H    -2.8594355   -0.6536320    0.9336701 
C    -0.2146928    1.5237516    0.3483922 
H     0.2917008    2.4852007    0.3135219 
H    -0.6252369    1.3776157    1.3462689 
H    -1.0443406    1.5142383   -0.3531133 
C     0.7009376    0.3688128    0.0324760 
O     0.2767428   -0.7510980   -0.2526055 
N     2.0270745    0.6305371    0.0916754 
H     2.3250870    1.5409652    0.3893626 
C     3.0094806   -0.4095743   -0.1310684 
H     2.6529234   -1.0605116   -0.9232454 
H     3.9498498    0.0439496   -0.4295821 
H     3.1689907   -1.0141012    0.7610071 
