15
./S66x8/54.90
C     0.7071942   -0.5798018   -1.2075569 
H     0.8232386   -1.1075266   -2.1441446 
C     0.4049898    0.7811066   -1.2078954 
H     0.2840113    1.3082808   -2.1440541 
C     0.2543363    1.4619808    0.0000000 
H     0.0185121    2.5172522    0.0000000 
C     0.4049898    0.7811066    1.2078954 
H     0.2840113    1.3082808    2.1440541 
C     0.7071942   -0.5798018    1.2075569 
H     0.8232386   -1.1075266    2.1441446 
C     0.8586954   -1.2598684    0.0000000 
H     1.0955328   -2.3151007    0.0000000 
O    -2.5726831   -0.2117501    0.0000000 
H    -2.4078791   -1.1564717    0.0000000 
H    -1.6853822    0.1598402    0.0000000 
