15
./NCIBLIND10/29
C     1.2101833    0.6986941   -1.5443802 
C     1.2101833   -0.6986941   -1.5443802 
C     0.0000000   -1.3973863   -1.5443798 
C    -1.2101833   -0.6986941   -1.5443802 
C    -1.2101833    0.6986941   -1.5443802 
C     0.0000000    1.3973863   -1.5443798 
H     2.1549316   -1.2441533   -1.5443790 
H     0.0000000   -2.4882873   -1.5443793 
H    -2.1549316   -1.2441533   -1.5443790 
H    -2.1549316    1.2441533   -1.5443790 
H     0.0000000    2.4882873   -1.5443793 
H     2.1549316    1.2441533   -1.5443790 
H    -0.0000000    0.7654654    5.9787644 
H    -0.0000000   -0.7654654    5.9787644 
O     0.0000000    0.0000000    6.5750262 
