12
./S66x8/52A
C     1.2073904    0.6970871    0.0000000 
H     2.1437298    1.2376830    0.0000000 
C     1.2073904   -0.6970871    0.0000000 
H     2.1437298   -1.2376830    0.0000000 
C     0.0000000   -1.3941743    0.0000000 
H     0.0000000   -2.4753659    0.0000000 
C    -1.2073904   -0.6970871    0.0000000 
H    -2.1437298   -1.2376830    0.0000000 
C    -1.2073904    0.6970871    0.0000000 
H    -2.1437298    1.2376830    0.0000000 
C     0.0000000    1.3941743    0.0000000 
H     0.0000000    2.4753659    0.0000000 
