9
./S66x8/08.125
O    -1.0984884    0.6673719    0.0000000 
H    -0.1342197    0.6348977    0.0000000 
C    -1.5599174   -0.6681057    0.0000000 
H    -2.6462041   -0.6367144    0.0000000 
H    -1.2384232   -1.2219502   -0.8850386 
H    -1.2384232   -1.2219502    0.8850386 
O     2.3460588    0.5534862    0.0000000 
H     2.7848085    0.9464823   -0.7572039 
H     2.7848085    0.9464823    0.7572039 
