16
./S66x8/50.200
C    -1.2086835   -0.6978337   -1.7781432 
H    -2.1450974   -1.2384726   -1.7747378 
C    -1.2086835    0.6978337   -1.7781432 
H    -2.1450974    1.2384726   -1.7747378 
C     0.0000000    1.3956675   -1.7781432 
H     0.0000000    2.4769451   -1.7747378 
C     1.2086835    0.6978337   -1.7781432 
H     2.1450974    1.2384726   -1.7747378 
C     1.2086835   -0.6978337   -1.7781432 
H     2.1450974   -1.2384726   -1.7747378 
C     0.0000000   -1.3956675   -1.7781432 
H     0.0000000   -2.4769451   -1.7747378 
C     0.0000000    0.0000000    4.7237838 
H     0.0000000    0.0000000    3.6595755 
C     0.0000000    0.0000000    5.9363024 
H     0.0000000    0.0000000    6.9976247 
