8
./S66x8/51.110
C    -0.6059216    0.0000000   -2.3337121 
H    -1.6679403    0.0000000   -2.3363504 
C     0.6059216    0.0000000   -2.3337121 
H     1.6679403    0.0000000   -2.3363504 
C     0.0000000    0.0000000    1.7295939 
H     0.0000000    0.0000000    0.6657594 
C     0.0000000    0.0000000    2.9416670 
H     0.0000000    0.0000000    4.0031048 
