25
./S66x8/61.95
C    -2.4463103   -0.1280413   -0.8108801 
H    -2.6616831   -0.7208931   -1.6997804 
H    -2.3972892   -0.8114128    0.0366094 
H    -3.2829910    0.5519770   -0.6548139 
C    -1.1326635    0.6263115   -0.9728148 
H    -0.9596646    1.2574654   -0.0975113 
H    -1.1971422    1.3024789   -1.8286724 
C     0.0555368   -0.3076767   -1.1622282 
H     0.1384790   -0.9681055   -0.2941761 
H    -0.1318148   -0.9589651   -2.0210038 
C     1.3720363    0.4282081   -1.3732145 
H     1.5406733    1.1148054   -0.5397675 
H     1.2951293    1.0507769   -2.2675076 
C     2.5566110   -0.5198273   -1.5047547 
H     2.4177762   -1.1961803   -2.3479713 
H     3.4905357    0.0187267   -1.6581826 
H     2.6642287   -1.1303763   -0.6081389 
C    -0.6463659   -0.2787125    2.4372460 
O    -1.0689798   -1.3938927    2.2400994 
O    -1.4600582    0.7802530    2.6698355 
H    -2.3608203    0.4258725    2.6292997 
C     0.7939012    0.1309536    2.4544514 
H     1.4197243   -0.7392274    2.2962962 
H     0.9699386    0.8652272    1.6713268 
H     1.0312125    0.6002545    3.4062538 
