17
./S66x8/19.95
O    -2.8218920    0.4658529    0.0000000 
H    -1.8506368    0.5006868    0.0000000 
C    -3.1721735   -0.9001698    0.0000000 
H    -4.2576412   -0.9636532    0.0000000 
H    -2.8060020   -1.4289218   -0.8939165 
H    -2.8060020   -1.4289218    0.8939165 
N     0.0018169    0.3990015    0.0000000 
C     0.7022197    0.3733623   -1.1443578 
H     0.1209589    0.3956278   -2.0574137 
C     2.0920197    0.3235683   -1.1880875 
H     2.6027339    0.3052732   -2.1400556 
C     2.7981700    0.2991131    0.0000000 
H     3.8784962    0.2613492    0.0000000 
C     2.0920197    0.3235683    1.1880875 
H     2.6027339    0.3052732    2.1400556 
C     0.7022197    0.3733623    1.1443578 
H     0.1209589    0.3956278    2.0574137 
