17
./S66x8/33.125
N     1.5195654   -0.0002584   -1.3864950 
C     0.8175340   -1.1402644   -1.4258791 
H     1.3969028   -2.0549872   -1.3920751 
C    -0.5715391   -1.1931390   -1.5112944 
H    -1.0759045   -2.1485866   -1.5432672 
C    -1.2834303    0.0001085   -1.5587756 
H    -2.3625129    0.0002326   -1.6271284 
C    -0.5712180    1.1931505   -1.5114367 
H    -1.0753284    2.1487229   -1.5434870 
C     0.8178349    1.1399313   -1.4260657 
H     1.3974440    2.0544860   -1.3924562 
C     0.1645467    0.6664472    2.7203399 
H     1.0750207    1.2259329    2.5612251 
H    -0.7450008    1.2288514    2.8773004 
C     0.1648793   -0.6662401    2.7204721 
H     1.0756150   -1.2253226    2.5614617 
H    -0.7444088   -1.2290649    2.8775613 
