20
./S66x8/22.110
C    -2.7579294   -0.4865832   -0.0632773 
O    -2.1113860    0.5357845    0.1230931 
O    -2.2223927   -1.6766828   -0.2888268 
H    -1.2309830   -1.6103467   -0.2829572 
C    -4.2557280   -0.5274137   -0.0610830 
H    -4.6509521    0.4632822    0.1273455 
H    -4.6085596   -0.8983446   -1.0204456 
H    -4.5974175   -1.2218051    0.7027961 
N     2.7232666   -0.7211368   -0.1562373 
H     3.1164717   -1.6365271   -0.3279568 
C     3.6447945    0.3269788    0.0252158 
O     4.8419409    0.1086830   -0.0276642 
C     3.0057284    1.6064412    0.2658229 
H     3.6252632    2.4733660    0.4173002 
C     1.6586442    1.6864313    0.2952041 
H     1.1358040    2.6148783    0.4705024 
N     0.8549135    0.5957493    0.1047981 
H    -0.1691383    0.6656970    0.1285884 
C     1.3548460   -0.6544735   -0.1293741 
O     0.6428135   -1.6439783   -0.3028443 
