18
./S66x8/21.100
C    -2.0518487    0.0579034   -0.0800868 
O    -1.4673994    1.0328749    0.3977969 
N    -1.4077201   -1.0272181   -0.5469110 
H    -0.3875163   -1.0708246   -0.5142257 
H    -1.9257260   -1.7958724   -0.9256726 
C    -3.5588183    0.0337259   -0.1655225 
H    -3.9627279    0.1402687    0.8381659 
H    -3.9515265   -0.8736387   -0.6168166 
H    -3.8852571    0.8943229   -0.7438096 
C     2.0518487   -0.0579034    0.0800868 
O     1.4673994   -1.0328749   -0.3977969 
N     1.4077201    1.0272181    0.5469110 
H     0.3875163    1.0708246    0.5142257 
H     1.9257260    1.7958724    0.9256726 
C     3.5588183   -0.0337259    0.1655225 
H     3.9515265    0.8736387    0.6168166 
H     3.9627279   -0.1402687   -0.8381659 
H     3.8852571   -0.8943229    0.7438096 
