23
./S66x8/49.95
C     0.8481640    1.0633594   -1.9700787 
H     1.5094928    1.9086625   -1.8361513 
C     1.3785961   -0.2120146   -2.1583727 
H     2.4502704   -0.3560318   -2.1666813 
C     0.5271549   -1.3016036   -2.3363413 
H     0.9388140   -2.2905857   -2.4846106 
C    -0.8546290   -1.1160227   -2.3231496 
H    -1.5152944   -1.9610173   -2.4611704 
C    -1.3849589    0.1590751   -2.1319201 
H    -2.4566308    0.3028566   -2.1195013 
C    -0.5335264    1.2488630   -1.9567948 
H    -0.9458375    2.2382470   -1.8121673 
N     0.0286306    0.3965868    3.9125303 
C     0.1833144    1.3345484    2.9676534 
H     0.3250852    2.3470744    3.3255551 
C     0.1691051    1.0672587    1.6011540 
H     0.2993452    1.8682845    0.8872686 
C    -0.0152332   -0.2443710    1.1758635 
H    -0.0317996   -0.4874897    0.1225156 
C    -0.1770821   -1.2294054    2.1447226 
H    -0.3236251   -2.2646163    1.8699511 
C    -0.1478796   -0.8620723    3.4878121 
H    -0.2714758   -1.6095862    4.2619131 
