29
./S66x8/40.200
C     0.9705093   -4.3146740    0.0000000 
H     2.0511727   -4.2677401    0.0000000 
C     0.2741695   -4.3453495    1.2060433 
H     0.8142860   -4.3213520    2.1427817 
C    -1.1181961   -4.4072360    1.2059486 
H    -1.6584026   -4.4304929    2.1425219 
C    -1.8143292   -4.4383590    0.0000000 
H    -2.8947437   -4.4847357    0.0000000 
C    -1.1181961   -4.4072360   -1.2059486 
H    -1.6584026   -4.4304929   -2.1425219 
C     0.2741695   -4.3453495   -1.2060433 
H     0.8142860   -4.3213520   -2.1427817 
C     0.2968876    3.0905564    0.0000000 
C     1.0624098    2.6476619    1.2452173 
H     2.0604338    3.0886797    1.2654388 
H     0.5386859    2.9545123    2.1520629 
H     1.1667405    1.5620700    1.2660118 
C     0.1590639    4.6104779    0.0000000 
H    -0.3859758    4.9509170   -0.8803055 
H    -0.3859758    4.9509170    0.8803055 
H     1.1389135    5.0905638    0.0000000 
C    -1.0885908    2.4494922    0.0000000 
H    -1.6560826    2.7521576   -0.8786172 
H    -1.6560826    2.7521576    0.8786172 
H    -1.0150201    1.3612824    0.0000000 
C     1.0624098    2.6476619   -1.2452173 
H     1.1667405    1.5620700   -1.2660118 
H     0.5386859    2.9545123   -2.1520629 
H     2.0604338    3.0886797   -1.2654388 
