18
./S66x8/07.125
O    -2.6584813   -0.5986195   -1.2065701 
H    -1.7385780   -0.7686406   -0.9481265 
C    -3.4718773   -1.1229200   -0.1796183 
H    -4.5071951   -0.9204562   -0.4427614 
H    -3.3574473   -2.2035752   -0.0656270 
H    -3.2743350   -0.6572436    0.7904814 
C    -0.0072430    1.5255574    0.4199866 
H     0.4991506    2.4870064    0.3851163 
H    -0.4177871    1.3794215    1.4178633 
H    -0.8368908    1.5160441   -0.2815189 
C     0.9083874    0.3706185    0.1040704 
O     0.4841926   -0.7492922   -0.1810111 
N     2.2345243    0.6323428    0.1632698 
H     2.5325367    1.5427710    0.4609570 
C     3.2169303   -0.4077685   -0.0594740 
H     2.8603731   -1.0587058   -0.8516510 
H     4.1572996    0.0457554   -0.3579877 
H     3.3764404   -1.0122954    0.8326015 
