29
./S66x8/46.125
C     1.3790433    0.8375928   -2.4149501 
H     0.9590286    1.8391650   -2.3526576 
H     1.9542740    0.7516311   -3.3350571 
H     2.0585544    0.6769406   -1.5828223 
C     0.3335894   -0.2525318   -2.3975760 
O     0.6256736   -1.4273658   -2.2144935 
N    -0.9431765    0.1700023   -2.6118599 
H    -1.0978192    1.1471410   -2.7796626 
C    -2.0530021   -0.7522535   -2.7056213 
H    -1.6625037   -1.7416805   -2.4885906 
H    -2.8277394   -0.5062648   -1.9821134 
H    -2.4841182   -0.7538094   -3.7057141 
C     2.7252004    0.3282353    2.1432790 
H     2.8420397    1.0826512    1.3645342 
H     2.6390900    0.8531216    3.0949351 
H     3.6372918   -0.2660066    2.1700870 
C     1.4969281   -0.5351522    1.8857274 
H     1.4023588   -1.2806062    2.6787783 
H     1.6133483   -1.0886166    0.9518836 
C     0.2143903    0.2834617    1.8204261 
H     0.1028200    0.8611966    2.7435097 
H     0.2936245    1.0162766    1.0107734 
C    -1.0299660   -0.5668735    1.6035462 
H    -1.1207680   -1.2813600    2.4249634 
H    -0.9021590   -1.1558113    0.6933317 
C    -2.2968045    0.2734180    1.5134315 
H    -2.2298912    0.9804690    0.6856622 
H    -3.1821467   -0.3425995    1.3595986 
H    -2.4471605    0.8496291    2.4266511 
