12
./S66x8/40A
C     1.2071001    0.6969195    0.0000000 
H     2.1438637    1.2377603    0.0000000 
C     1.2071001   -0.6969195    0.0000000 
H     2.1438637   -1.2377603    0.0000000 
C     0.0000000   -1.3938391    0.0000000 
H     0.0000000   -2.4755205    0.0000000 
C    -1.2071001   -0.6969195    0.0000000 
H    -2.1438637   -1.2377603    0.0000000 
C    -1.2071001    0.6969195    0.0000000 
H    -2.1438637    1.2377603    0.0000000 
C     0.0000000    1.3938391    0.0000000 
H     0.0000000    2.4755205    0.0000000 
