12
./S22x5/20A
N     2.0113588   -1.2132069   -0.0980670 
C     2.0257078   -0.6971799   -1.3644029 
H     2.2975208   -1.3910589   -2.1456458 
C     1.7145229    0.5919650   -1.6124889 
H     1.7272869    0.9908469   -2.6120048 
C     1.3089599    1.4575339   -0.5205890 
O     0.9205929    2.6110858   -0.6260460 
N     1.3768879    0.8397449    0.7346359 
H     1.0518039    1.3862229    1.5233709 
C     1.6459909   -0.4852110    1.0187269 
O     1.5611089   -0.9718059    2.1298058 
H     2.1294628   -2.2015048    0.0568130 
