9
./NCIBLIND10/6A
C    -4.5066408   -0.6042055   -0.8569493 
C    -5.8002758   -0.2352484   -0.4887822 
C    -4.4849704    0.5833574    1.0103367 
N    -3.6843150   -0.0726753    0.1137594 
H    -2.6542851   -0.1412166    0.1498301 
H    -4.1186633   -1.1804967   -1.6935754 
H    -6.7322638   -0.4664329   -1.0013721 
H    -4.0846227    1.0950172    1.8828435 
N    -5.7808054    0.5064359    0.6780303 
