27
./S66x8/42.105
N     0.1967023   -1.0065982   -1.9462834 
H     0.4513703   -1.9586619   -1.7203619 
C    -1.1780765   -0.7355934   -2.0106464 
O    -1.9926735   -1.6181742   -1.8032292 
C    -1.4757420    0.6492467   -2.3325703 
H    -2.5053832    0.9537416   -2.4062352 
C    -0.4671401    1.5210535   -2.5352390 
H    -0.6374625    2.5597340   -2.7762940 
N     0.8466013    1.1440822   -2.4432993 
H     1.5906653    1.8069703   -2.5841701 
C     1.2552342   -0.1424471   -2.1338859 
O     2.4232771   -0.4636253   -2.0382504 
C     1.0632376   -1.0284389    1.8084369 
H     1.5170901   -1.1204951    0.8204544 
H     1.6077401   -1.6924191    2.4776346 
C     1.1175511    0.4375132    2.2413729 
H     2.0758410    0.9104121    2.0306486 
H     0.9294358    0.5191507    3.3145960 
C    -0.0498005    1.0503276    1.4706017 
H     0.2245038    1.1391092    0.4171301 
H    -0.3342149    2.0414688    1.8222357 
C    -1.1667450    0.0127557    1.6416300 
H    -1.8922843    0.0363696    0.8302581 
H    -1.7108306    0.2174529    2.5638786 
C    -0.4437087   -1.3537921    1.7452869 
H    -0.6863732   -1.9979482    0.9019272 
H    -0.7588149   -1.8811945    2.6443733 
