29
./S66x8/40.100
C     0.7829891   -2.5004410    0.0000000 
H     1.8636525   -2.4535071    0.0000000 
C     0.0866493   -2.5311165    1.2072593 
H     0.6267659   -2.5071191    2.1439977 
C    -1.3057163   -2.5930031    1.2071646 
H    -1.8459228   -2.6162599    2.1437378 
C    -2.0018494   -2.6241261    0.0000000 
H    -3.0822639   -2.6705028    0.0000000 
C    -1.3057163   -2.5930031   -1.2071646 
H    -1.8459228   -2.6162599   -2.1437378 
C     0.0866493   -2.5311165   -1.2072593 
H     0.6267659   -2.5071191   -2.1439977 
C     0.4292548    1.8099214    0.0000000 
C     1.1947769    1.3670269    1.2443590 
H     2.1928010    1.8080447    1.2645805 
H     0.6710531    1.6738773    2.1512046 
H     1.2991077    0.2814349    1.2651535 
C     0.2914311    3.3298428    0.0000000 
H    -0.2536086    3.6702820   -0.8811638 
H    -0.2536086    3.6702820    0.8811638 
H     1.2712807    3.8099288    0.0000000 
C    -0.9562236    1.1688572    0.0000000 
H    -1.5237154    1.4715226   -0.8794756 
H    -1.5237154    1.4715226    0.8794756 
H    -0.8826529    0.0806473    0.0000000 
C     1.1947769    1.3670269   -1.2443590 
H     1.2991077    0.2814349   -1.2651535 
H     0.6710531    1.6738773   -2.1512046 
H     2.1928010    1.8080447   -1.2645805 
