12
./S66x8/46A
C     1.6922261    0.8385455    0.1326431 
H     1.2722115    1.8401176    0.1949356 
H     2.2674568    0.7525838   -0.7874638 
H     2.3717372    0.6778933    0.9647708 
C     0.6467723   -0.2515790    0.1500172 
O     0.9388565   -1.4264130    0.3330996 
N    -0.6299935    0.1709550   -0.0642667 
H    -0.7846362    1.1480936   -0.2320694 
C    -1.7398190   -0.7513007   -0.1580281 
H    -1.3493206   -1.7407276    0.0590027 
H    -2.5145563   -0.5053121    0.5654798 
H    -2.1709350   -0.7528565   -1.1581208 
