34
./S66x8/35.105
C     0.3443174    2.3899551   -2.5327611 
H     0.8936777    3.3307205   -2.5662948 
H     1.0740211    1.5806717   -2.5617677 
H    -0.2630205    2.3244563   -3.4341612 
C    -0.5064031    2.3068742   -1.2722611 
H    -1.0724663    1.3722367   -1.2700359 
H    -1.2448711    3.1118456   -1.2710265 
C     0.3260026    2.3916535    0.0000000 
H     1.0702171    1.5891224    0.0000000 
H     0.8902592    3.3290133    0.0000000 
C    -0.5064031    2.3068742    1.2722611 
H    -1.0724663    1.3722367    1.2700359 
H    -1.2448711    3.1118456    1.2710265 
C     0.3443174    2.3899551    2.5327611 
H     0.8936777    3.3307205    2.5662948 
H    -0.2630205    2.3244563    3.4341612 
H     1.0740211    1.5806717    2.5617677 
C    -0.0446639   -2.3623137    0.0000000 
C     0.1208128   -3.8794965    0.0000000 
H    -0.3424606   -4.3205501   -0.8837979 
H     1.1763760   -4.1549298    0.0000000 
H    -0.3424606   -4.3205501    0.8837979 
C     0.6182062   -1.7771195   -1.2443452 
H     0.5109562   -0.6919262   -1.2668583 
H     1.6834399   -2.0123866   -1.2642450 
H     0.1659014   -2.1796976   -2.1519956 
C     0.6182062   -1.7771195    1.2443452 
H     0.5109562   -0.6919262    1.2668583 
H     1.6834399   -2.0123866    1.2642450 
H     0.1659014   -2.1796976    2.1519956 
C    -1.5305666   -2.0124398    0.0000000 
H    -2.0279726   -2.4198601    0.8780953 
H    -1.6750882   -0.9310493    0.0000000 
H    -2.0279726   -2.4198601   -0.8780953 
