15
./S66x8/65.200
N    -0.0053629    0.4732745    0.0000000 
C    -0.1284134    1.1618243   -1.1412313 
H    -0.0266230    0.5879542   -2.0540337 
C    -0.3724872    2.5311935   -1.1926366 
H    -0.4620515    3.0294194   -2.1472282 
C    -0.4970146    3.2327850    0.0000000 
H    -0.6860172    4.2972026    0.0000000 
C    -0.3724872    2.5311935    1.1926366 
H    -0.4620515    3.0294194    2.1472282 
C    -0.1284134    1.1618243    1.1412313 
H    -0.0266230    0.5879542    2.0540337 
C     0.8586081   -6.2615070    0.0000000 
H     0.9740238   -7.3165188    0.0000000 
C     0.7265322   -5.0552619    0.0000000 
H     0.6083808   -3.9907572    0.0000000 
