16
./S22x5/11_0.9
C     0.0000000    0.0000000   -1.2071079 
C    -0.0947239   -0.6906871    0.0000000 
C     0.0000000    0.0000000    1.2071079 
C     0.1892930    1.3811947    1.2070729 
C     0.2842094    2.0717712    0.0000000 
C     0.1892930    1.3811947   -1.2070729 
H    -0.0708844   -0.5364547   -2.1432888 
H    -0.2353351   -1.7626407    0.0000000 
H    -0.0708844   -0.5364547    2.1432888 
H     0.2624342    1.9168299    2.1436948 
H     0.4303738    3.1432576    0.0000000 
H     0.2624342    1.9168299   -2.1436948 
N     3.3224324   -0.1751584    0.0000000 
H     3.6857232    0.3169610   -0.8060729 
H     3.6857232    0.3169610    0.8060729 
H     2.3243381    0.0000000    0.0000000 
