23
./S66x8/29.90
N     1.1704721   -0.0615137   -1.3131847 
C     0.5716517   -1.2486385   -1.4894440 
H     1.2111947   -2.1197129   -1.4236028 
C    -0.7915972   -1.3988391   -1.7317299 
H    -1.2106990   -2.3870588   -1.8562790 
C    -1.5881509   -0.2601298   -1.7993627 
H    -2.6512960   -0.3361442   -1.9816515 
C    -0.9839056    0.9804466   -1.6230727 
H    -1.5590975    1.8943108   -1.6545398 
C     0.3874353    1.0259191   -1.3855470 
H     0.8844113    1.9778622   -1.2453478 
N    -0.7863959   -0.3930064    1.2853262 
H    -1.6812849   -0.8248699    1.1007228 
C    -0.7861410    1.0048034    1.3783372 
O    -1.8260241    1.6330032    1.2634871 
C     0.5333537    1.5638848    1.6059003 
H     0.6346701    2.6311069    1.7017685 
C     1.6032273    0.7451925    1.6774204 
H     2.6071064    1.1138572    1.8258469 
N     1.4851662   -0.6121008    1.5648657 
H     2.2986022   -1.2042882    1.5566981 
C     0.2847192   -1.2593332    1.3384840 
O     0.1925820   -2.4647513    1.2049047 
