29
./S66x8/43.200
N     1.2060588   -0.9666193   -3.8421464 
H     0.9891674   -1.9272072   -3.6136607 
C     0.1475213   -0.2030424   -4.3533983 
O    -0.9507941   -0.7041098   -4.5244695 
C     0.5131029    1.1755686   -4.6284247 
H    -0.2297660    1.8361038   -5.0409017 
C     1.7635196    1.6022284   -4.3575289 
H     2.0818277    2.6181640   -4.5382292 
N     2.7141073    0.7708950   -3.8289803 
H     3.6353134    1.1081947   -3.6046343 
C     2.4827607   -0.5588851   -3.5197503 
O     3.3237838   -1.2796302   -3.0194748 
C    -1.0399997   -0.2044467    2.8737313 
C    -2.3567459    0.5368421    3.0886042 
H    -3.0638173   -0.0813641    3.6434665 
H    -2.1972464    1.4570267    3.6527892 
H    -2.8144557    0.7983391    2.1334505 
C    -0.4245631   -0.5578846    4.2250087 
H     0.5185991   -1.0902579    4.0942269 
H    -0.2275422    0.3418571    4.8098108 
H    -1.0958571   -1.1956216    4.8017454 
C    -0.0748755    0.6890311    2.0979422 
H     0.8736950    0.1764364    1.9275882 
H     0.1304147    1.6071676    2.6513685 
H    -0.4972708    0.9675177    1.1304777 
C    -1.3013169   -1.4844811    2.0833664 
H    -1.7650553   -1.2626474    1.1207417 
H    -0.3687406   -2.0228800    1.9037297 
H    -1.9718247   -2.1462950    2.6335513 
