18
./S66x8/55.125
C     1.0709880    1.2572499   -1.3546372 
H     1.7462551    2.1016391   -1.3537050 
C     1.5778566   -0.0413875   -1.3071365 
H     2.6461548   -0.2032054   -1.2689773 
C     0.7065594   -1.1300163   -1.3035045 
H     1.0999008   -2.1365178   -1.2653741 
C    -0.6709668   -0.9206796   -1.3471394 
H    -1.3464175   -1.7651654   -1.3432886 
C    -1.1781073    0.3771246   -1.3908373 
H    -2.2467082    0.5397253   -1.4206906 
C    -0.3075363    1.4663060   -1.3945259 
H    -0.7005228    2.4730817   -1.4240404 
O     0.3037427    0.5017511    2.6174326 
H     0.3898429    0.5516242    1.6602391 
C    -0.5924079   -0.5558630    2.9004877 
H    -0.6881286   -0.6125976    3.9814238 
H    -1.5845575   -0.3841653    2.4766975 
H    -0.2259476   -1.5189041    2.5375762 
