24
./S66x8/47.105
C     0.7288484    1.1979537   -2.7229672 
H     1.3028756    2.0990748   -2.8905352 
C     1.3747471   -0.0345139   -2.6369185 
H     2.4501745   -0.0897715   -2.7363882 
C     0.6346995   -1.1957009   -2.4203100 
H     1.1359942   -2.1511650   -2.3494783 
C    -0.7513259   -1.1248018   -2.2918051 
H    -1.3248662   -2.0265603   -2.1254965 
C    -1.3973747    0.1075233   -2.3766058 
H    -2.4727656    0.1633408   -2.2756974 
C    -0.6572376    1.2691487   -2.5913568 
H    -1.1581687    2.2254396   -2.6545993 
C     0.1712145    0.2574483    1.1513087 
H     0.2933409    0.4829318    0.1008823 
C    -0.9198671   -0.4974503    1.5786450 
H    -1.6403716   -0.8539645    0.8549506 
C    -1.0805671   -0.7915756    2.9315951 
H    -1.9276747   -1.3775442    3.2618426 
C    -0.1486845   -0.3305222    3.8600892 
H    -0.2725780   -0.5584884    4.9100967 
C     0.9429006    0.4245798    3.4348489 
H     1.6660197    0.7824130    4.1552315 
C     1.1017045    0.7180649    2.0813576 
H     1.9489624    1.3041397    1.7513102 
