10
./S66x8/03.105
O    -2.5807211   -0.7819933   -0.0060698 
H    -2.9393777    0.1056893    0.0262625 
H    -1.6192137   -0.6443983    0.0100584 
N     0.4917817   -0.5611060    0.0201301 
H     0.7871461   -1.1137440   -0.7746608 
H     0.8018622   -1.0718271    0.8369896 
C     1.1511170    0.7472580   -0.0201115 
H     0.8405745    1.3289829    0.8444039 
H     2.2424263    0.7079630   -0.0290672 
H     0.8244047    1.2831754   -0.9079353 
