7
./S66x8/09A
N     0.2984041    0.8718104    0.0000000 
H     0.9040840    0.9320335    0.8070949 
H     0.9040840    0.9320335   -0.8070949 
C    -0.3741534   -0.4251385    0.0000000 
H    -1.0106605   -0.5071411   -0.8790597 
H     0.2889024   -1.2964565    0.0000000 
H    -1.0106605   -0.5071411    0.8790597 
