9
./S66x8/21B
C    -0.4591596   -0.3479195   -0.1815680 
O    -1.0435813   -1.3219398   -0.6612990 
N    -1.1032471    0.7368237    0.2862785 
H    -2.1233524    0.7812615    0.2519772 
H    -0.5852231    1.5047848    0.6663991 
C     1.0478394   -0.3236351   -0.0963430 
H     1.4397105    0.5760144    0.3708410 
H     1.4513956   -0.4111801   -1.1021232 
H     1.3756182   -1.1942099    0.4658373 
