9
./S66x8/08.105
O    -0.9662122    0.6630301    0.0000000 
H    -0.0019435    0.6305560    0.0000000 
C    -1.4276412   -0.6724475    0.0000000 
H    -2.5139279   -0.6410562    0.0000000 
H    -1.1061470   -1.2262920   -0.8850037 
H    -1.1061470   -1.2262920    0.8850037 
O     2.0815064    0.5621697    0.0000000 
H     2.5202562    0.9551659   -0.7572737 
H     2.5202562    0.9551659    0.7572737 
