15
./S66x8/04.95
O    -3.2182924    0.4482324    0.1608864 
H    -3.7377348    1.2467632    0.2624639 
H    -2.3013701    0.7644664    0.1753265 
C    -0.6800828   -1.4179185   -0.1446174 
H    -0.0301200   -2.2790303   -0.2775328 
H    -1.3610588   -1.3404464   -0.9884827 
H    -1.2930997   -1.5567145    0.7423909 
C     0.0746493   -0.1199056   -0.0120239 
O    -0.5020662    0.9553893    0.1445648 
N     1.4252824   -0.2174083   -0.0766419 
H     1.8262340   -1.1279423   -0.2061570 
C     2.2935245    0.9345622    0.0328012 
H     1.6570304    1.8028626    0.1675858 
H     2.9591140    0.8431070    0.8888941 
H     2.8879902    1.0639827   -0.8694580 
