11
./S66x8/25B
N     0.0000000    0.0000000   -1.6117377 
C     1.1407167    0.0000000   -0.9092325 
H     2.0546537    0.0000000   -1.4910324 
C     1.1940362    0.0000000    0.4818115 
H     2.1499943    0.0000000    0.9866575 
C     0.0000000    0.0000000    1.1970637 
H     0.0000000    0.0000000    2.2782658 
C    -1.1940362    0.0000000    0.4818115 
H    -2.1499943    0.0000000    0.9866575 
C    -1.1407167    0.0000000   -0.9092325 
H    -2.0546537    0.0000000   -1.4910324 
