10
./S22x5/17A
C    -1.2471889   -1.1718209   -0.6961389 
C    -1.2471889   -1.1718209    0.6961389 
N    -0.2589510   -1.7235769    1.4144799 
C     0.7315329   -2.2652218    0.6967289 
C     0.7315329   -2.2652218   -0.6967289 
N    -0.2589510   -1.7235769   -1.4144799 
H    -2.0634358   -0.7223199   -1.2472799 
H    -2.0634358   -0.7223199    1.2472799 
H     1.5487999   -2.7128278    1.2475599 
H     1.5487999   -2.7128278   -1.2475599 
