23
./S66x8/27.105
C     1.2157890    0.8530226   -1.5685060 
H     1.8631556    1.7055179   -1.4120707 
C     1.7660392   -0.4016737   -1.8234903 
H     2.8400784   -0.5230117   -1.8673665 
C     0.9314206   -1.4996429   -2.0286801 
H     1.3578903   -2.4727139   -2.2322996 
C    -0.4520736   -1.3416571   -1.9766885 
H    -1.1000274   -2.1930100   -2.1363453 
C    -1.0024434   -0.0871799   -1.7163579 
H    -2.0756446    0.0337581   -1.6634101 
C    -0.1682503    1.0102536   -1.5145129 
H    -0.5955146    1.9825116   -1.3105339 
N    -2.0234732    0.1618006    1.8439481 
C    -1.4085873    1.3194684    2.1240123 
H    -2.0561913    2.1726399    2.2865244 
C    -0.0263724    1.4603161    2.2141831 
H     0.4054764    2.4239663    2.4453994 
C     0.7745790    0.3433368    1.9999692 
H     1.8521482    0.4137211    2.0548037 
C     0.1540271   -0.8653182    1.7063096 
H     0.7298016   -1.7609401    1.5222347 
C    -1.2364872   -0.9033561    1.6408602 
H    -1.7453401   -1.8318095    1.4120175 
