17
./S66x8/36B
C     0.0000000    0.0000000    0.0000000 
C    -0.8814942    0.8814942    0.8814942 
H    -1.5230222    0.2752954    1.5230222 
H    -0.2752954    1.5230222    1.5230222 
H    -1.5230222    1.5230222    0.2752954 
C     0.8814942   -0.8814942    0.8814942 
H     1.5230222   -1.5230222    0.2752954 
H     1.5230222   -0.2752954    1.5230222 
H     0.2752954   -1.5230222    1.5230222 
C     0.8814942    0.8814942   -0.8814942 
H     1.5230222    0.2752954   -1.5230222 
H     1.5230222    1.5230222   -0.2752954 
H     0.2752954    1.5230222   -1.5230222 
C    -0.8814942   -0.8814942   -0.8814942 
H    -1.5230222   -0.2752954   -1.5230222 
H    -0.2752954   -1.5230222   -1.5230222 
H    -1.5230222   -1.5230222   -0.2752954 
