15
./S66x8/04.150
O    -4.0516082    0.3598099    0.1751332 
H    -4.5710506    1.1583407    0.2767106 
H    -3.1346859    0.6760439    0.1895732 
C    -0.4717539   -1.3958128   -0.1481791 
H     0.1782090   -2.2569247   -0.2810945 
H    -1.1527298   -1.3183408   -0.9920444 
H    -1.0847708   -1.5346088    0.7388293 
C     0.2829782   -0.0978000   -0.0155856 
O    -0.2937372    0.9774949    0.1410031 
N     1.6336113   -0.1953026   -0.0802036 
H     2.0345630   -1.1058366   -0.2097187 
C     2.5018534    0.9566678    0.0292395 
H     1.8653593    1.8249683    0.1640241 
H     3.1674430    0.8652126    0.8853324 
H     3.0963192    1.0860883   -0.8730197 
