20
./S66x8/22.200
C    -3.6781282   -0.5098003   -0.0598068 
O    -3.0315848    0.5125674    0.1265636 
O    -3.1425915   -1.6998999   -0.2853564 
H    -2.1511818   -1.6335638   -0.2794868 
C    -5.1759268   -0.5506308   -0.0576126 
H    -5.5711508    0.4400651    0.1308159 
H    -5.5287583   -0.9215617   -1.0169751 
H    -5.5176163   -1.2450222    0.7062665 
N     3.3367325   -0.7056588   -0.1585510 
H     3.7299376   -1.6210490   -0.3302704 
C     4.2582604    0.3424569    0.0229021 
O     5.4554068    0.1241610   -0.0299778 
C     3.6191943    1.6219192    0.2635093 
H     4.2387291    2.4888441    0.4149866 
C     2.2721101    1.7019094    0.2928905 
H     1.7492699    2.6303564    0.4681887 
N     1.4683793    0.6112274    0.1024845 
H     0.4443275    0.6811751    0.1262748 
C     1.9683118   -0.6389954   -0.1316877 
O     1.2562794   -1.6285003   -0.3051579 
