17
./NCIBLIND10/11
C     0.7028831    1.2174292    0.9647229 
C     1.4057691    0.0000000    0.9647253 
C     0.7028831   -1.2174292    0.9647229 
C    -0.7028846   -1.2174318    0.9647253 
C    -1.4057662    0.0000000    0.9647229 
C    -0.7028846    1.2174318    0.9647253 
H     1.2504987    2.1659272    0.9647219 
H     2.5010030    0.0000000    0.9647260 
H     1.2504987   -2.1659272    0.9647219 
H    -1.2505015   -2.1659321    0.9647260 
H    -2.5009973    0.0000000    0.9647219 
H    -1.2505015    2.1659321    0.9647260 
C    -0.0000000    0.0000000   -2.3153390 
H    -0.0000000    0.0000000   -1.2158078 
H     0.5183252    0.8977656   -2.6818471 
H    -1.0366504    0.0000000   -2.6818471 
H     0.5183252   -0.8977656   -2.6818471 
