12
./S66x8/28A
C     1.2081290    0.6975136    0.0000000 
H     2.1441772    1.2379413    0.0000000 
C     1.2081290   -0.6975136    0.0000000 
H     2.1441772   -1.2379413    0.0000000 
C     0.0000000   -1.3950272    0.0000000 
H     0.0000000   -2.4758826    0.0000000 
C    -1.2081290   -0.6975136    0.0000000 
H    -2.1441772   -1.2379413    0.0000000 
C    -1.2081290    0.6975136    0.0000000 
H    -2.1441772    1.2379413    0.0000000 
C     0.0000000    1.3950272    0.0000000 
H     0.0000000    2.4758826    0.0000000 
