16
./S66x8/20.105
C    -1.9729805    0.0939780    0.0000000 
O    -1.2693876    1.0962933    0.0000000 
O    -1.5006114   -1.1422863    0.0000000 
H    -0.5068543   -1.1070276    0.0000000 
C    -3.4697115    0.1391630    0.0000000 
H    -3.8073166    1.1682661    0.0000000 
H    -3.8472560   -0.3914819   -0.8768260 
H    -3.8472560   -0.3914819    0.8768260 
C     1.9729805   -0.0939780    0.0000000 
O     1.2693876   -1.0962933    0.0000000 
O     1.5006114    1.1422863    0.0000000 
H     0.5068543    1.1070276    0.0000000 
C     3.4697115   -0.1391630    0.0000000 
H     3.8073166   -1.1682661    0.0000000 
H     3.8472560    0.3914819   -0.8768260 
H     3.8472560    0.3914819    0.8768260 
