17
./S66x8/33.110
N     1.5212303    1.2168870    0.0000000 
C     0.8193493    1.2563644   -1.1400461 
H     1.3988389    1.2226353   -2.0546952 
C    -0.5697168    1.3417841   -1.1930970 
H    -1.0739561    1.3738351   -2.1486085 
C    -1.2817655    1.3891676    0.0000000 
H    -2.3608481    1.4575204    0.0000000 
C    -0.5697168    1.3417841    1.1930970 
H    -1.0739561    1.3738351    2.1486085 
C     0.8193493    1.2563644    1.1400461 
H     1.3988389    1.2226353    2.0546952 
C     0.1617993   -2.4094896    0.6662577 
H     1.0721994   -2.2504205    1.2258766 
H    -0.7478224   -2.5664961    1.2285291 
C     0.1617993   -2.4094896   -0.6662577 
H     1.0721994   -2.2504205   -1.2258766 
H    -0.7478224   -2.5664961   -1.2285291 
