14
./NCIBLIND10/95
C    -1.4898587   -2.3475717   -2.0395672 
H    -1.8668460   -1.6429981   -2.7880816 
H    -1.7306934   -1.9993550   -1.0258876 
H    -1.8404755   -3.3721015   -2.1992503 
N    -0.0014900   -2.3567819   -2.1349090 
O     0.5525107   -1.2905013   -2.4443750 
O     0.5890014   -3.4084122   -1.8599937 
C     1.4072371    2.6470246    1.9545298 
H     1.6188212    3.2513763    2.8468171 
H     1.2842648    3.2803969    1.0707128 
H     2.1651818    1.8706197    1.8134171 
N     0.1051820    1.9634814    2.1996246 
O    -0.9298179    2.5569729    1.8662881 
O     0.1369826    0.8478499    2.7406750 
