24
./S66x8/15.105
C    -2.0048006    0.3783482    1.9931840 
H    -2.4865936    1.0646237    2.6851738 
H    -0.9537361    0.6386544    1.8941326 
H    -2.0973545   -0.6226295    2.4103389 
C    -2.7518439    0.4240993    0.6781149 
O    -3.9637477    0.2404969    0.6206454 
N    -1.9733542    0.6748925   -0.4039235 
H    -0.9766224    0.7915399   -0.2721076 
C    -2.5303522    0.7587697   -1.7336679 
H    -3.5953219    0.5624748   -1.6545780 
H    -2.3810994    1.7489162   -2.1622439 
H    -2.0799262    0.0209768   -2.3970731 
C     0.8587085   -1.6900699    0.2821042 
H     1.4169333   -2.6000732    0.0761962 
H    -0.0699834   -1.6965994   -0.2822212 
H     0.5994896   -1.6666232    1.3390452 
C     1.6263444   -0.4356579   -0.0541325 
O     1.0811578    0.6657789   -0.1111049 
N     2.9531027   -0.6044717   -0.2678805 
H     3.3294240   -1.5317174   -0.1911232 
C     3.8403408    0.5019943   -0.5568290 
H     3.2261485    1.3928041   -0.6366527 
H     4.5677554    0.6414600    0.2405743 
H     4.3653311    0.3420126   -1.4959714 
