8
./S66x8/61B
C    -0.4811849   -0.3275535   -0.0383551 
O    -0.9037988   -1.4427337   -0.2355017 
O    -1.2948772    0.7314119    0.1942344 
H    -2.1956392    0.3770314    0.1536986 
C     0.9590821    0.0821125   -0.0211497 
H     1.5849051   -0.7880683   -0.1793049 
H     1.1351195    0.8163861   -0.8042742 
H     1.1963933    0.5514135    0.9306526 
