18
./S66x8/30.125
C     0.8355202    1.1151643   -1.4368460 
H     1.4843270    1.9806059   -1.4387131 
C     1.3832779   -0.1661499   -1.4344805 
H     2.4571520   -0.2952074   -1.4354736 
C     0.5475576   -1.2813190   -1.4365602 
H     0.9729391   -2.2758072   -1.4384661 
C    -0.8355202   -1.1151643   -1.4368460 
H    -1.4843270   -1.9806059   -1.4387131 
C    -1.3832779    0.1661499   -1.4344805 
H    -2.4571520    0.2952074   -1.4354736 
C    -0.5475576    1.2813190   -1.4365602 
H    -0.9729391    2.2758072   -1.4384661 
C     0.6557807   -0.1167904    2.8765027 
H     1.0472415   -1.1239092    2.8720356 
H     1.3708545    0.6932736    2.8720012 
C    -0.6557807    0.1167904    2.8765027 
H    -1.3708545   -0.6932736    2.8720012 
H    -1.0472415    1.1239092    2.8720356 
