21
./S66x8/53.125
C     0.9018297    0.6576341   -1.5792030 
H     1.5600945    1.2017812   -0.9161914 
C     1.3891661   -0.3762770   -2.3777998 
H     2.4391528   -0.6342431   -2.3469942 
C     0.5240756   -1.0775994   -3.2167730 
H     0.9023530   -1.8798059   -3.8357815 
C    -0.8285609   -0.7434545   -3.2594090 
H    -1.4991368   -1.2865985   -3.9113734 
C    -1.3161283    0.2920877   -2.4631108 
H    -2.3653021    0.5525689   -2.4981784 
C    -0.4521751    0.9922586   -1.6219652 
H    -0.8198419    1.7894415   -0.9909203 
C     0.0232198    0.4638288    2.7680929 
O     0.2697091    1.5072550    2.1808536 
N    -0.2808275   -0.6911778    2.1169256 
H    -0.2556272   -0.6981931    1.1102890 
H    -0.4366040   -1.5466701    2.6126273 
C     0.0460645    0.3689370    4.2765104 
H     1.0777783    0.4531492    4.6115842 
H    -0.3758394   -0.5577060    4.6575361 
H    -0.5034002    1.2127833    4.6832809 
