15
./S66x8/54.100
C     0.7645554   -0.5733632   -1.2075569 
H     0.8805998   -1.1010881   -2.1441446 
C     0.4623510    0.7875452   -1.2078954 
H     0.3413724    1.3147193   -2.1440541 
C     0.3116975    1.4684194    0.0000000 
H     0.0758732    2.5236907    0.0000000 
C     0.4623510    0.7875452    1.2078954 
H     0.3413724    1.3147193    2.1440541 
C     0.7645554   -0.5733632    1.2075569 
H     0.8805998   -1.1010881    2.1441446 
C     0.9160565   -1.2534298    0.0000000 
H     1.1528939   -2.3086622    0.0000000 
O    -2.8021277   -0.2375045    0.0000000 
H    -2.6373237   -1.1822260    0.0000000 
H    -1.9148268    0.1340858    0.0000000 
