30
./S22x5/02_1.2
N     0.0673908    1.2138060   -1.1711924 
C    -0.0344407    0.1609160   -2.0351795 
H    -0.0379091    0.3076947   -3.1023112 
N    -0.1222865   -1.0142144   -1.4316593 
C    -0.0612781   -0.6901560   -0.0977385 
C    -0.0838665   -1.4800063    1.0651219 
N    -0.2075513   -2.8301677    1.0084662 
H     0.0202360   -3.3182943    1.8584926 
H     0.1008240   -3.2618396    0.1517918 
N    -0.0151073   -0.8728862    2.2548203 
C     0.0955344    0.4684736    2.2865920 
H     0.1484436    0.9024335    3.2770553 
N     0.1507916    1.3308174    1.2682323 
C     0.0612781    0.6901560    0.0977385 
H     0.2131238    2.1785319   -1.4200825 
N     3.9512381    1.3189125    0.1151693 
C     3.9895548    0.5441347    1.2482354 
H     4.1227175    1.0842164    2.1744911 
C     3.8689042   -0.8020360    1.2133063 
C     3.9213548   -1.6642277    2.4293805 
H     2.9655717   -2.1618673    2.5850375 
H     4.6821968   -2.4350338    2.3154874 
H     4.1449093   -1.0706289    3.3135379 
C     3.6744255   -1.4403263   -0.0803797 
O     3.5140262   -2.6400817   -0.2550338 
N     3.6856204   -0.5608378   -1.1684844 
H     3.5099315   -0.9779987   -2.0726174 
C     3.7705628    0.8141697   -1.1527981 
O     3.6878943    1.5138539   -2.1491631 
H     3.9896042    2.3225166    0.1791185 
