30
./S66x8/38.110
C    -0.4437388   -2.0890709    1.2377784 
H    -0.5781356   -2.9455756    1.8971432 
H    -0.6369245   -1.1978044    1.8322650 
C     0.9864199   -2.0935934    0.6382817 
H     1.5266358   -2.9810367    0.9665746 
H     1.5708166   -1.2306626    0.9531025 
C     0.7935532   -2.1375296   -0.8854153 
H     1.6148875   -2.6328489   -1.4008877 
H     0.7168421   -1.1238048   -1.2839629 
C    -0.5508639   -2.8420359   -1.0559617 
H    -0.4373554   -3.9093070   -0.8512037 
H    -0.9735291   -2.7342093   -2.0538815 
C    -1.3992175   -2.1897146    0.0348805 
H    -2.3092252   -2.7412207    0.2652200 
H    -1.6937574   -1.1915578   -0.2939332 
C    -0.7935532    2.1375296   -0.8854153 
H    -0.7168421    1.1238048   -1.2839629 
H    -1.6148875    2.6328489   -1.4008877 
C    -0.9864199    2.0935934    0.6382817 
H    -1.5708166    1.2306626    0.9531025 
H    -1.5266358    2.9810367    0.9665746 
C     0.4437388    2.0890709    1.2377784 
H     0.6369245    1.1978044    1.8322650 
H     0.5781356    2.9455756    1.8971432 
C     1.3992175    2.1897146    0.0348805 
H     1.6937574    1.1915578   -0.2939332 
H     2.3092252    2.7412207    0.2652200 
C     0.5508639    2.8420359   -1.0559617 
H     0.9735291    2.7342093   -2.0538815 
H     0.4373554    3.9093070   -0.8512037 
