28
./S22x5/15_1.5
C    -0.0526521   -1.3932257    0.0000000 
C    -0.0255433   -0.6969401   -1.2082919 
C     0.0263483    0.6967242   -1.2083649 
C     0.0510423    1.3936574    0.0000000 
C     0.0263483    0.6967242    1.2083649 
C    -0.0255433   -0.6969401    1.2082919 
H    -0.0974307   -2.4736558    0.0000000 
H    -0.0405098   -1.2373600   -2.1445898 
H     0.0509556    1.2365312   -2.1448378 
H     0.0896576    2.4744122    0.0000000 
H     0.0509556    1.2365312    2.1448378 
H    -0.0405098   -1.2373600    2.1445898 
H     3.3463288    0.0000000    0.0000000 
N     4.3536461    0.0050564    0.0000000 
C     5.1353002    1.1326049    0.0000000 
C     6.4641849    0.7723546    0.0000000 
C     6.5055784   -0.6531931    0.0000000 
C     5.1557338   -1.1049208    0.0000000 
C     4.8210742   -2.4620948    0.0000000 
C     5.8632664   -3.3761786    0.0000000 
C     7.2075897   -2.9516411    0.0000000 
C     7.5379296   -1.6067054    0.0000000 
H     4.6816061    2.1095946    0.0000000 
H     7.2995746    1.4514898    0.0000000 
H     3.7886853   -2.7857306    0.0000000 
H     5.6415490   -4.4348224    0.0000000 
H     7.9936546   -3.6945699    0.0000000 
H     8.5742553   -1.2945938    0.0000000 
