12
./S66x8/14A
C     0.3474190   -0.1919745    1.8515753 
H     1.3507369    0.2203932    1.7746712 
H     0.4035124   -1.2157456    2.2157723 
H    -0.2259151    0.3821630    2.5748713 
C    -0.3945102   -0.1852816    0.5335128 
O    -1.5748427   -0.5122396    0.4507846 
N     0.3340388    0.2017056   -0.5382228 
H     1.3201040    0.4170540   -0.4358875 
C    -0.2718059    0.2152636   -1.8501300 
H    -1.1889355    0.8002373   -1.8385220 
H     0.4271882    0.6586074   -2.5541782 
H    -0.5269899   -0.7901828   -2.1842470 
