16
./NCIBLIND10/73
C     3.3108157    0.7572796    0.0000000 
H     3.1851733    1.8455606    0.0000000 
H     3.8521212    0.4243182   -0.8963607 
H     3.8521212    0.4243182    0.8963607 
O     1.9641098    0.2173892    0.0000000 
C     1.9219989   -1.1434071    0.0000000 
O     2.9025479   -1.8663710    0.0000000 
H     0.8712387   -1.4773935    0.0000000 
C    -2.2281011    1.0095945    0.0000000 
H    -2.4569255    2.0804151    0.0000000 
H    -1.6593551    0.7285041   -0.8957488 
H    -1.6593551    0.7285041    0.8957488 
O    -3.5231461    0.3468817    0.0000000 
C    -3.4482646   -0.9978843    0.0000000 
O    -2.4191848   -1.6540669    0.0000000 
H    -4.4657943   -1.4236425    0.0000000 
