19
./S66x8/56.200
C     1.0733918    1.3727151   -2.4936677 
H     1.6630253    2.2763699   -2.5659931 
C     1.6992637    0.1275530   -2.5316129 
H     2.7742199    0.0649468   -2.6301021 
C     0.9390949   -1.0375273   -2.4371091 
H     1.4249957   -2.0031507   -2.4608935 
C    -0.4464758   -0.9569988   -2.3068239 
H    -1.0356244   -1.8608284   -2.2331697 
C    -1.0723349    0.2880946   -2.2701279 
H    -2.1471560    0.3501258   -2.1686664 
C    -0.3123844    1.4528242   -2.3622799 
H    -0.7976588    2.4188330   -2.3327821 
N     0.3642572   -0.2084110    4.0133242 
H     0.4988756   -0.1643705    3.0102528 
H     0.5057498    0.7367358    4.3457964 
C    -1.0118422   -0.6147944    4.2907600 
H    -1.1697188   -0.6433414    5.3673155 
H    -1.7831444    0.0255864    3.8506410 
H    -1.1665342   -1.6243622    3.9151383 
