18
./NCIBLIND10/35
C    -3.0480877    1.3174026   -0.0894284 
H    -3.4061046    1.7527410    0.8559398 
H    -3.4312051    1.9269944   -0.9230445 
H    -1.9487465    1.3542633   -0.1066287 
C    -3.5424072   -0.1134850   -0.2234110 
H    -3.1825303   -0.5598536   -1.1682292 
H    -4.6467185   -0.1434655   -0.2279011 
O    -3.0310674   -0.8556493    0.9036708 
H    -3.3652338   -1.7607067    0.8421096 
C     3.1480318   -1.0455429   -0.6943201 
H     2.2723149   -0.6983062   -1.2624110 
H     2.9868987   -2.0973032   -0.4109146 
H     4.0347389   -0.9824417   -1.3429426 
C     3.3347854   -0.1919665    0.5484239 
H     4.2143124   -0.5350231    1.1224250 
H     2.4402382   -0.2609678    1.1893063 
O     3.5350193    1.1676997    0.1021353 
H     3.6357613    1.7256105    0.8852204 
