18
./S66x8/31.100
N    -0.0433564   -1.2214059   -1.1326769 
H    -0.0457048   -2.2320184   -1.1168175 
C    -1.3012959   -0.6032010   -1.1626132 
O    -2.3197028   -1.2738796   -1.1724680 
C    -1.2293013    0.8467237   -1.1788635 
H    -2.1452218    1.4101358   -1.2214136 
C    -0.0276771    1.4565112   -1.1329343 
H     0.0778836    2.5311511   -1.1347569 
N     1.1420464    0.7489579   -1.0747945 
H     2.0312375    1.2154475   -1.0109464 
C     1.2007032   -0.6331575   -1.0508640 
O     2.2439152   -1.2525129   -0.9724535 
C     0.7339838   -0.2156866    2.2486927 
H     1.2511015   -1.0866745    1.8714661 
H     1.3395948    0.5713075    2.6760070 
C    -0.5947927   -0.1150961    2.1994458 
H    -1.2067956   -0.9025757    1.7825450 
H    -1.1066177    0.7559735    2.5834455 
