10
./S22x5/07_1.5
C     0.0000000   -0.6675779    0.0000000 
C     0.0000000    0.6675779    0.0000000 
H    -0.0015260   -1.2322529   -0.9236209 
H    -0.0015260   -1.2322529    0.9236209 
H    -0.0015260    1.2322529    0.9236209 
H    -0.0015260    1.2322529   -0.9236209 
C     6.4011670    0.0000000    0.0000000 
C     5.1939041    0.0000000    0.0000000 
H     4.1280162    0.0000000    0.0000000 
H     7.4645929    0.0000000    0.0000000 
