25
./S66x8/61.100
C    -2.4388860   -0.1261154   -0.8488995 
H    -2.6542588   -0.7189671   -1.7377997 
H    -2.3898648   -0.8094868   -0.0014100 
H    -3.2755667    0.5539030   -0.6928333 
C    -1.1252391    0.6282375   -1.0108342 
H    -0.9522402    1.2593914   -0.1355307 
H    -1.1897179    1.3044048   -1.8666917 
C     0.0629612   -0.3057507   -1.2002476 
H     0.1459034   -0.9661795   -0.3321954 
H    -0.1243904   -0.9570392   -2.0590232 
C     1.3794607    0.4301341   -1.4112339 
H     1.5480976    1.1167313   -0.5777868 
H     1.3025537    1.0527029   -2.3055269 
C     2.5640353   -0.5179013   -1.5427740 
H     2.4252006   -1.1942543   -2.3859907 
H     3.4979600    0.0206527   -1.6962020 
H     2.6716531   -1.1284504   -0.6461582 
C    -0.6621426   -0.2828051    2.5180371 
O    -1.0847566   -1.3979854    2.3208905 
O    -1.4758350    0.7761604    2.7506266 
H    -2.3765971    0.4217798    2.7100909 
C     0.7781244    0.1268610    2.5352425 
H     1.4039475   -0.7433200    2.3770873 
H     0.9541619    0.8611346    1.7521179 
H     1.0154357    0.5961619    3.4870449 
