7
./S66x8/03B
N    -0.5281674   -0.7501930    0.0000000 
H    -0.2254321   -1.2819797   -0.8060323 
H    -0.2254321   -1.2819797    0.8060323 
C     0.1311971    0.5587748    0.0000000 
H    -0.1873587    1.1178258    0.8764131 
H     1.2225519    0.5197260    0.0000000 
H    -0.1873587    1.1178258   -0.8764131 
