28
./NCIBLIND10/51
C     2.5816180    0.0890499   -0.1272985 
C     3.7882413   -0.3144279    0.5175839 
N     1.5487381   -0.8244977   -0.4515648 
N     2.3400834    1.4699166   -0.4562449 
O     0.7075219   -0.4963914   -1.3130914 
O     1.5316878   -1.9508394    0.1027159 
O     3.3284524    2.1821903   -0.7432104 
O     1.1815610    1.9058850   -0.4009238 
N     3.9167538   -1.5413215    1.0582443 
H     4.8310414   -1.8715179    1.3387698 
H     3.1204084   -2.1708837    0.9911230 
N     4.8409916    0.5238483    0.6131758 
H     5.5863960    0.3199044    1.2659183 
H     4.7728103    1.4313858    0.1610570 
C    -3.7956550    0.1583513   -0.0155964 
C    -2.4204685    0.0115284   -0.3747133 
N    -4.6812021   -0.9644004    0.0459948 
N    -4.3656760    1.4266657    0.3120999 
O    -5.6459207   -0.9267797    0.8227398 
O    -4.4145869   -1.9679297   -0.6641489 
O    -3.5959812    2.3363233    0.7187878 
O    -5.5812895    1.6011991    0.1447867 
N    -1.9453293   -1.1588041   -0.8453524 
H    -0.9588403   -1.2416657   -1.0710567 
H    -2.6242524   -1.8849381   -1.0526664 
N    -1.5548818    1.0355982   -0.2442208 
H    -0.5873331    0.9426964   -0.5342064 
H    -1.9048885    1.8798545    0.2012978 
