17
./S66x8/37B
C     0.0000000    0.0000000    0.0000000 
C    -0.8799462    0.8799462    0.8799462 
H    -1.5196462    0.2711792    1.5196462 
H    -0.2711792    1.5196462    1.5196462 
H    -1.5196462    1.5196462    0.2711792 
C     0.8799462   -0.8799462    0.8799462 
H     1.5196462   -1.5196462    0.2711792 
H     1.5196462   -0.2711792    1.5196462 
H     0.2711792   -1.5196462    1.5196462 
C     0.8799462    0.8799462   -0.8799462 
H     1.5196462    0.2711792   -1.5196462 
H     1.5196462    1.5196462   -0.2711792 
H     0.2711792    1.5196462   -1.5196462 
C    -0.8799462   -0.8799462   -0.8799462 
H    -1.5196462   -0.2711792   -1.5196462 
H    -0.2711792   -1.5196462   -1.5196462 
H    -1.5196462   -1.5196462   -0.2711792 
