17
./S66x8/33.100
N     1.5222486    1.1037329    0.0000000 
C     0.8203677    1.1432103   -1.1400503 
H     1.3998572    1.1094812   -2.0546994 
C    -0.5686984    1.2286300   -1.1931012 
H    -1.0729377    1.2606810   -2.1486127 
C    -1.2807472    1.2760135    0.0000000 
H    -2.3598297    1.3443663    0.0000000 
C    -0.5686984    1.2286300    1.1931012 
H    -1.0729377    1.2606810    2.1486127 
C     0.8203677    1.1432103    1.1400503 
H     1.3998572    1.1094812    2.0546994 
C     0.1599323   -2.2020405    0.6662654 
H     1.0703325   -2.0429714    1.2258843 
H    -0.7496894   -2.3590470    1.2285368 
C     0.1599323   -2.2020405   -0.6662654 
H     1.0703325   -2.0429714   -1.2258843 
H    -0.7496894   -2.3590470   -1.2285368 
