22
./S66x8/58.150
N    -2.5115092    0.8497277    0.0000000 
C    -2.4930527   -0.4928992    0.0000000 
H    -1.5130593   -0.9563283    0.0000000 
C    -3.6468130   -1.2734737    0.0000000 
H    -3.5668226   -2.3512190    0.0000000 
C    -4.8866037   -0.6434977    0.0000000 
H    -5.8018628   -1.2191811    0.0000000 
C    -4.9191865    0.7470789    0.0000000 
H    -5.8557330    1.2864004    0.0000000 
C    -3.7133987    1.4426035    0.0000000 
H    -3.7083952    2.5257862    0.0000000 
N     2.5115092   -0.8497277    0.0000000 
C     3.7133987   -1.4426035    0.0000000 
H     3.7083952   -2.5257862    0.0000000 
C     4.9191865   -0.7470789    0.0000000 
H     5.8557330   -1.2864004    0.0000000 
C     4.8866037    0.6434977    0.0000000 
H     5.8018628    1.2191811    0.0000000 
C     3.6468130    1.2734737    0.0000000 
H     3.5668226    2.3512190    0.0000000 
C     2.4930527    0.4928992    0.0000000 
H     1.5130593    0.9563283    0.0000000 
