8
./S66x8/63B
C     0.5094941   -0.2559965    0.1089157 
O     1.7049867   -0.0920458    0.1854314 
O    -0.0700075   -1.4674014    0.3083540 
H     0.6644433   -2.0685098    0.5013921 
C    -0.5123900    0.7879349   -0.2117655 
H    -0.0340956    1.7588812   -0.2585882 
H    -0.9651901    0.5547388   -1.1744735 
H    -1.2972410    0.7823985    0.5407339 
