19
./S66x8/11.105
N    -2.5837784    0.0032843   -0.3737341 
H    -1.8831925   -0.2496775   -1.0624464 
H    -3.4753224   -0.2841733   -0.7552618 
C    -2.3195846   -0.7453778    0.8539599 
H    -3.0712197   -0.4968180    1.6011276 
H    -2.3020937   -1.8333806    0.7400144 
H    -1.3536125   -0.4425790    1.2554104 
C     0.3906579    1.8685014   -0.6444266 
H     0.5152764    2.2796782   -1.6434709 
H     0.8972293    2.5094940    0.0733579 
H    -0.6757538    1.8419719   -0.4260052 
C     0.9026496    0.4507038   -0.6421326 
O     0.4426697   -0.4150327   -1.3813072 
N     1.8891326    0.1776714    0.2501982 
H     2.2888936    0.9326042    0.7755509 
C     2.4775779   -1.1419191    0.3276977 
H     1.6894013   -1.8832493    0.2346771 
H     3.1988377   -1.3139145   -0.4708467 
H     2.9722314   -1.2577873    1.2876372 
