24
./S66x8/26.95
N     1.3082482    0.8278949    1.0276159 
H     0.9831595    1.3743713    1.8163466 
C     1.2403298    1.4456773   -0.2276640 
O     0.8519084    2.5992252   -0.3329857 
N     1.9427700   -1.2250608    0.1949192 
H     1.6586326    0.9789902   -2.3190046 
C     1.9570840   -0.7090238   -1.0714064 
H     2.2288641   -1.4029126   -1.8526543 
C     1.6458594    0.5800853   -1.3194962 
H     2.0608013   -2.2133734    0.3498201 
C     1.5772921   -0.4970585    1.3117093 
O     1.4924631   -0.9836689    2.4228000 
N    -1.3082482   -0.8278949    1.0276159 
H    -0.9831595   -1.3743713    1.8163466 
C    -1.2403298   -1.4456773   -0.2276640 
O    -0.8519084   -2.5992252   -0.3329857 
N    -1.9427700    1.2250608    0.1949192 
H    -1.6586326   -0.9789902   -2.3190046 
C    -1.9570840    0.7090238   -1.0714064 
H    -2.2288641    1.4029126   -1.8526543 
C    -1.6458594   -0.5800853   -1.3194962 
H    -2.0608013    2.2133734    0.3498201 
C    -1.5772921    0.4970585    1.3117093 
O    -1.4924631    0.9836689    2.4228000 
