24
./S66x8/24.100
C     0.2126489    1.1209938   -1.6894606 
H     0.8578453    1.9863973   -1.6222642 
C     0.7582393   -0.1592538   -1.6257679 
H     1.8249579   -0.2871018   -1.5032584 
C    -0.0731114   -1.2745286   -1.7073510 
H     0.3504483   -2.2684346   -1.6552515 
C    -1.4495742   -1.1100760   -1.8503150 
H    -2.0944521   -1.9762756   -1.9137149 
C    -1.9955220    0.1710487   -1.9115474 
H    -3.0637792    0.2992193   -2.0237045 
C    -1.1638240    1.2866410   -1.8334029 
H    -1.5868971    2.2809983   -1.8828876 
C     1.4495742    1.1100760    1.8503150 
H     2.0944521    1.9762756    1.9137149 
C     1.9955220   -0.1710487    1.9115474 
H     3.0637792   -0.2992193    2.0237045 
C     1.1638240   -1.2866410    1.8334029 
H     1.5868971   -2.2809983    1.8828876 
C    -0.2126489   -1.1209938    1.6894606 
H    -0.8578453   -1.9863973    1.6222642 
C    -0.7582393    0.1592538    1.6257679 
H    -1.8249579    0.2871018    1.5032584 
C     0.0731114    1.2745286    1.7073510 
H    -0.3504483    2.2684346    1.6552515 
