12
./S66x8/30A
C     1.2067570    0.6967215    0.0000000 
H     2.1434789    1.2375381    0.0000000 
C     1.2067570   -0.6967215    0.0000000 
H     2.1434789   -1.2375381    0.0000000 
C     0.0000000   -1.3934429    0.0000000 
H     0.0000000   -2.4750762    0.0000000 
C    -1.2067570   -0.6967215    0.0000000 
H    -2.1434789   -1.2375381    0.0000000 
C    -1.2067570    0.6967215    0.0000000 
H    -2.1434789    1.2375381    0.0000000 
C     0.0000000    1.3934429    0.0000000 
H     0.0000000    2.4750762    0.0000000 
