15
./S22x5/02A
N     0.2793010    2.4068388   -0.6057520 
C    -1.0848569    2.4457458   -0.5511610 
H    -1.6594399    3.0230288   -1.2560899 
N    -1.5977119    1.7179879    0.4287540 
C    -0.4897250    1.1714359    1.0301909 
C    -0.3461370    0.2914710    2.1172338 
N    -1.4187089   -0.1677770    2.8101438 
H    -1.2388749   -0.9594799    3.4047577 
H    -2.2918728   -0.1788220    2.3073618 
N     0.8857629   -0.0700760    2.4919488 
C     1.9352349    0.4072880    1.7968019 
H     2.9060328    0.0788410    2.1458178 
N     1.9409779    1.2242019    0.7402199 
C     0.6952189    1.5779859    0.4063980 
H     0.8610069    2.8298038   -1.3104499 
