24
./S66x8/17.95
N    -1.4445827    1.1596551    0.0000000 
H    -0.4161610    1.2108919    0.0000000 
C    -2.0114081   -0.1035394    0.0000000 
O    -1.3086824   -1.1166301    0.0000000 
C    -3.4582059   -0.1254443    0.0000000 
H    -3.9641740   -1.0749477    0.0000000 
C    -4.1366035    1.0409783    0.0000000 
H    -5.2154806    1.0876714    0.0000000 
N    -3.4894204    2.2422964    0.0000000 
H    -3.9984216    3.1107649    0.0000000 
C    -2.1060622    2.3739072    0.0000000 
O    -1.5544273    3.4539227    0.0000000 
N     3.3495564    0.0553363    0.0000000 
H     3.7968002    0.9619095    0.0000000 
C     4.2056042   -1.0592815    0.0000000 
O     5.4150562   -0.9075770    0.0000000 
C     3.4913858   -2.3214550    0.0000000 
H     4.0579703   -3.2364857    0.0000000 
C     2.1412168   -2.3252729    0.0000000 
H     1.5642536   -3.2382376    0.0000000 
N     1.4032254   -1.1743920    0.0000000 
H     0.3768891   -1.1958348    0.0000000 
C     1.9759963    0.0702730    0.0000000 
O     1.3256754    1.1114913    0.0000000 
