12
./S66x8/63A
C     1.2068335    0.6967656    0.0000000 
H     2.1433793    1.2374806    0.0000000 
C     1.2068335   -0.6967656    0.0000000 
H     2.1433793   -1.2374806    0.0000000 
C     0.0000000   -1.3935313    0.0000000 
H     0.0000000   -2.4749612    0.0000000 
C    -1.2068335   -0.6967656    0.0000000 
H    -2.1433793   -1.2374806    0.0000000 
C    -1.2068335    0.6967656    0.0000000 
H    -2.1433793    1.2374806    0.0000000 
C     0.0000000    1.3935313    0.0000000 
H     0.0000000    2.4749612    0.0000000 
