15
./S66x8/54.95
C     0.7360637   -0.5765613   -1.2075569 
H     0.8521081   -1.1042862   -2.1441446 
C     0.4338593    0.7843471   -1.2078954 
H     0.3128807    1.3115212   -2.1440541 
C     0.2832058    1.4652213    0.0000000 
H     0.0473815    2.5204927    0.0000000 
C     0.4338593    0.7843471    1.2078954 
H     0.3128807    1.3115212    2.1440541 
C     0.7360637   -0.5765613    1.2075569 
H     0.8521081   -1.1042862    2.1441446 
C     0.8875648   -1.2566279    0.0000000 
H     1.1244022   -2.3118602    0.0000000 
O    -2.6881610   -0.2247121    0.0000000 
H    -2.5233570   -1.1694337    0.0000000 
H    -1.8008600    0.1468782    0.0000000 
