12
./S22x5/06_1.0
C    -0.4719250   -0.4719250   -1.8591109 
C     0.4719250    0.4719250   -1.8591109 
H    -0.8724219   -0.8724219   -0.9361249 
H     0.8724219    0.8724219   -0.9361249 
H    -0.8704639   -0.8704639   -2.7833078 
H     0.8704639    0.8704639   -2.7833078 
C    -0.4719250    0.4719250    1.8591109 
C     0.4719250   -0.4719250    1.8591109 
H    -0.8724219    0.8724219    0.9361249 
H     0.8724219   -0.8724219    0.9361249 
H    -0.8704639    0.8704639    2.7833078 
H     0.8704639   -0.8704639    2.7833078 
