16
./S66x8/32.90
N    -0.0429378   -1.2189151   -0.7888726 
H    -0.0448003   -2.2286375   -0.7438300 
C    -1.3014439   -0.6060692   -0.8634691 
O    -2.3163809   -1.2788250   -0.9219856 
C    -1.2358430    0.8451277   -0.8653915 
H    -2.1518336    1.4044088   -0.9459853 
C    -0.0405643    1.4605033   -0.7646875 
H     0.0606263    2.5355057   -0.7554632 
N     1.1284421    0.7566669   -0.6637140 
H     2.0091709    1.2263556   -0.5372626 
C     1.1878628   -0.6247289   -0.6227167 
O     2.2271472   -1.2373896   -0.4637104 
C     0.7047067   -0.4454082    2.1846399 
H     1.7005250   -0.7993940    2.0704211 
C    -0.4398974   -0.0589505    2.2908317 
H    -1.4447799    0.2697499    2.3911959 
