14
./S66x8/18.95
O    -3.5522658   -0.1643646    0.0000000 
H    -3.8711945    0.7391251    0.0000000 
H    -2.5867753   -0.0644994    0.0000000 
N    -0.6933400    0.0310329    0.0000000 
C     0.0024909   -0.0029649    1.1448921 
H    -0.5822420    0.0206245    2.0557220 
C     1.3915112   -0.0681485    1.1949786 
H     1.8973544   -0.0930252    2.1493406 
C     2.1027534   -0.1012461    0.0000000 
H     3.1825934   -0.1530196    0.0000000 
C     1.3915112   -0.0681485   -1.1949786 
H     1.8973544   -0.0930252   -2.1493406 
C     0.0024909   -0.0029649   -1.1448921 
H    -0.5822420    0.0206245   -2.0557220 
