24
./S66x8/57.110
C     0.5726937    1.0578080   -2.0282125 
H     1.1758526    1.9553286   -2.0356707 
C     1.1830817   -0.1929867   -2.1146951 
H     2.2594851   -0.2650504   -2.1865576 
C     0.4056365   -1.3500998   -2.1070586 
H     0.8791302   -2.3198058   -2.1756764 
C    -0.9822659   -1.2574746   -2.0098466 
H    -1.5852680   -2.1551437   -2.0043388 
C    -1.5933640   -0.0071773   -1.9207968 
H    -2.6695999    0.0650266   -1.8447094 
C    -0.8157722    1.1509895   -1.9314649 
H    -1.2901376    2.1207838   -1.8666127 
C     0.4149188    1.9760291    2.1431813 
H     0.0567737    2.1417600    1.1298885 
H     1.4395024    2.3327387    2.2246228 
H    -0.1891780    2.5496649    2.8415340 
C     0.3780725    0.5228660    2.5588901 
O     0.6627009    0.1705046    3.6974282 
N     0.0056772   -0.3428507    1.5796491 
H    -0.1554507    0.0151400    0.6535807 
C    -0.0311156   -1.7697300    1.7977361 
H     0.0469719   -1.9366375    2.8677323 
H    -0.9663562   -2.1880806    1.4309980 
H     0.7980108   -2.2736027    1.3003987 
