15
./S66x8/16.200
C    -0.6505597   -0.5150168    1.9362924 
H     0.4090632   -0.4400243    1.7056069 
H    -0.8779518   -1.5220706    2.2780760 
H    -0.8958829    0.1678394    2.7461899 
C    -1.5411901   -0.1975103    0.7564935 
O    -2.7635790   -0.2251031    0.8465573 
N    -0.8796755    0.1135146   -0.3883952 
H     0.1275535    0.1143525   -0.3842157 
C    -1.5843791    0.4400126   -1.6061285 
H    -2.6466271    0.3668634   -1.3942281 
H    -1.3565600    1.4528816   -1.9356693 
H    -1.3318812   -0.2544162   -2.4061590 
O     4.2823136    0.1491474   -0.6243731 
H     4.8472909   -0.5638112   -0.9295725 
H     4.8620652    0.9133410   -0.6004746 
