30
./S66x8/38.100
C    -0.4354916   -1.9360639    1.2377784 
H    -0.5698884   -2.7925686    1.8971432 
H    -0.6286774   -1.0447974    1.8322650 
C     0.9946671   -1.9405864    0.6382817 
H     1.5348830   -2.8280297    0.9665746 
H     1.5790637   -1.0776556    0.9531025 
C     0.8018003   -1.9845226   -0.8854153 
H     1.6231346   -2.4798419   -1.4008877 
H     0.7250892   -0.9707978   -1.2839629 
C    -0.5426168   -2.6890289   -1.0559617 
H    -0.4291083   -3.7563000   -0.8512037 
H    -0.9652820   -2.5812023   -2.0538815 
C    -1.3909704   -2.0367076    0.0348805 
H    -2.3009781   -2.5882137    0.2652200 
H    -1.6855103   -1.0385508   -0.2939332 
C    -0.8018003    1.9845226   -0.8854153 
H    -0.7250892    0.9707978   -1.2839629 
H    -1.6231346    2.4798419   -1.4008877 
C    -0.9946671    1.9405864    0.6382817 
H    -1.5790637    1.0776556    0.9531025 
H    -1.5348830    2.8280297    0.9665746 
C     0.4354916    1.9360639    1.2377784 
H     0.6286774    1.0447974    1.8322650 
H     0.5698884    2.7925686    1.8971432 
C     1.3909704    2.0367076    0.0348805 
H     1.6855103    1.0385508   -0.2939332 
H     2.3009781    2.5882137    0.2652200 
C     0.5426168    2.6890289   -1.0559617 
H     0.9652820    2.5812023   -2.0538815 
H     0.4291083    3.7563000   -0.8512037 
