24
./S66x8/17.200
N    -2.3757979    1.2081816    0.0000000 
H    -1.3473762    1.2594184    0.0000000 
C    -2.9426233   -0.0550129    0.0000000 
O    -2.2398976   -1.0681036    0.0000000 
C    -4.3894210   -0.0769178    0.0000000 
H    -4.8953892   -1.0264212    0.0000000 
C    -5.0678187    1.0895047    0.0000000 
H    -6.1466958    1.1361979    0.0000000 
N    -4.4206356    2.2908229    0.0000000 
H    -4.9296368    3.1592913    0.0000000 
C    -3.0372774    2.4224337    0.0000000 
O    -2.4856424    3.5024492    0.0000000 
N     4.2807716    0.0068098    0.0000000 
H     4.7280154    0.9133830    0.0000000 
C     5.1368194   -1.1078079    0.0000000 
O     6.3462714   -0.9561035    0.0000000 
C     4.4226009   -2.3699815    0.0000000 
H     4.9891855   -3.2850122    0.0000000 
C     3.0724320   -2.3737994    0.0000000 
H     2.4954687   -3.2867641    0.0000000 
N     2.3344405   -1.2229185    0.0000000 
H     1.3081043   -1.2443613    0.0000000 
C     2.9072115    0.0217465    0.0000000 
O     2.2568906    1.0629648    0.0000000 
