29
./S66x8/41.200
N    -0.3441291   -1.1443293   -3.8951592 
H    -0.3593753   -2.1528560   -3.8248364 
C    -1.5815664   -0.5243278   -4.1232617 
O    -2.5964610   -1.1905383   -4.2320283 
C    -1.4930065    0.9234389   -4.2017765 
H    -2.3917964    1.4879841   -4.3800730 
C    -0.2982275    1.5301459   -4.0487940 
H    -0.1815147    2.6026993   -4.0965706 
N     0.8502278    0.8210775   -3.8187139 
H     1.7323355    1.2871811   -3.6851360 
C     0.8917966   -0.5589168   -3.7172731 
O     1.9139724   -1.1771421   -3.4926605 
C     1.2758654    2.2122823    2.8354495 
H     0.8450168    2.5233310    1.8826669 
H     0.6416315    2.6177154    3.6236972 
H     2.2587454    2.6727297    2.9285710 
C     1.3488819    0.6934113    2.9249678 
H     1.7792655    0.4038485    3.8862588 
H     2.0234714    0.3022508    2.1598497 
C    -0.0159033    0.0352447    2.7701511 
H    -0.6871476    0.4041205    3.5517703 
H    -0.4633742    0.3455097    1.8202509 
C     0.0403856   -1.4854419    2.8297866 
H     0.4639911   -1.7878723    3.7904228 
H     0.7319073   -1.8473208    2.0652842 
C    -1.3288973   -2.1273151    2.6460129 
H    -1.7672763   -1.8538574    1.6858274 
H    -1.2719585   -3.2140835    2.6900701 
H    -2.0168601   -1.7989691    3.4252460 
