21
./S66x8/45.95
C     1.8012473   -2.1665266   -0.6068092 
H     1.8007952   -2.1665817   -1.6686564 
C     1.8012473   -2.1665266    0.6068092 
H     1.8007952   -2.1665817    1.6686564 
C    -0.6540118    0.3143865   -2.5301754 
H    -0.6401628   -0.7758694   -2.5385469 
H    -1.6964357    0.6286400   -2.5817295 
H    -0.1549955    0.6643942   -3.4327644 
C     0.0120349    0.8505143   -1.2698759 
H     0.0105722    1.9428648   -1.2865270 
H     1.0595948    0.5425772   -1.2449749 
C    -0.6721245    0.3649692    0.0000000 
H    -1.7155544    0.6942684    0.0000000 
H    -0.6895985   -0.7280362    0.0000000 
C     0.0120349    0.8505143    1.2698759 
H     0.0105722    1.9428648    1.2865270 
H     1.0595948    0.5425772    1.2449749 
C    -0.6540118    0.3143865    2.5301754 
H    -0.6401628   -0.7758694    2.5385469 
H    -0.1549955    0.6643942    3.4327644 
H    -1.6964357    0.6286400    2.5817295 
