11
./S66x8/19B
N     0.0000000    0.0000000   -1.6044276 
C     1.1452568    0.0000000   -0.9085516 
H     2.0557619    0.0000000   -1.4942178 
C     1.1950601    0.0000000    0.4819355 
H     2.1492506    0.0000000    0.9888148 
C     0.0000000    0.0000000    1.1937349 
H     0.0000000    0.0000000    2.2747310 
C    -1.1950601    0.0000000    0.4819355 
H    -2.1492506    0.0000000    0.9888148 
C    -1.1452568    0.0000000   -0.9085516 
H    -2.0557619    0.0000000   -1.4942178 
