12
./S66x8/11B
C    -1.0250756    1.5311078   -0.4561707 
H    -0.9004572    1.9422845   -1.4552150 
H    -0.5185043    2.1721003    0.2616137 
H    -2.0914873    1.5045783   -0.2377493 
C    -0.5130840    0.1133103   -0.4538767 
O    -0.9730638   -0.7524261   -1.1930512 
N     0.4733989   -0.1597221    0.4384540 
H     0.8731599    0.5952106    0.9638067 
C     1.0618442   -1.4793125    0.5159535 
H     0.2736676   -2.2206426    0.4229329 
H     1.7831039   -1.6513079   -0.2825908 
H     1.5564977   -1.5951807    1.4758930 
