21
./S66x8/45.110
C     2.0511948   -2.4731727   -0.6069192 
H     2.0507427   -2.4732278   -1.6687664 
C     2.0511948   -2.4731727    0.6069192 
H     2.0507427   -2.4732278    1.6687664 
C    -0.7128230    0.3865385   -2.5301495 
H    -0.6989739   -0.7037174   -2.5385210 
H    -1.7552468    0.7007921   -2.5817036 
H    -0.2138067    0.7365462   -3.4327385 
C    -0.0467762    0.9226663   -1.2698500 
H    -0.0482390    2.0150168   -1.2865012 
H     1.0007836    0.6147293   -1.2449490 
C    -0.7309357    0.4371213    0.0000000 
H    -1.7743655    0.7664204    0.0000000 
H    -0.7484097   -0.6558842    0.0000000 
C    -0.0467762    0.9226663    1.2698500 
H    -0.0482390    2.0150168    1.2865012 
H     1.0007836    0.6147293    1.2449490 
C    -0.7128230    0.3865385    2.5301495 
H    -0.6989739   -0.7037174    2.5385210 
H    -0.2138067    0.7365462    3.4327385 
H    -1.7552468    0.7007921    2.5817036 
