24
./S66x8/26.100
N     1.3769011    0.8397475    1.0276159 
H     1.0518124    1.3862238    1.8163466 
C     1.3089827    1.4575298   -0.2276640 
O     0.9205614    2.6110778   -0.3329857 
N     2.0114229   -1.2132083    0.1949192 
H     1.7272855    0.9908427   -2.3190046 
C     2.0257369   -0.6971712   -1.0714064 
H     2.2975170   -1.3910600   -1.8526543 
C     1.7145123    0.5919378   -1.3194962 
H     2.1294542   -2.2015209    0.3498201 
C     1.6459450   -0.4852060    1.3117093 
O     1.5611160   -0.9718164    2.4228000 
N    -1.3769011   -0.8397475    1.0276159 
H    -1.0518124   -1.3862238    1.8163466 
C    -1.3089827   -1.4575298   -0.2276640 
O    -0.9205614   -2.6110778   -0.3329857 
N    -2.0114229    1.2132083    0.1949192 
H    -1.7272855   -0.9908427   -2.3190046 
C    -2.0257369    0.6971712   -1.0714064 
H    -2.2975170    1.3910600   -1.8526543 
C    -1.7145123   -0.5919378   -1.3194962 
H    -2.1294542    2.2015209    0.3498201 
C    -1.6459450    0.4852060    1.3117093 
O    -1.5611160    0.9718164    2.4228000 
