34
./S66x8/34.110
C     1.6934044    1.1973904   -2.5333721 
H     2.7794833    1.2845818   -2.5637312 
H     1.4453401    0.1366430   -2.5670324 
H     1.2951458    1.6614826   -3.4344745 
C     1.1363891    1.8439204   -1.2719273 
H     0.0458245    1.7754724   -1.2710276 
H     1.3763602    2.9097401   -1.2666840 
C     1.6775064    1.2049285    0.0000000 
H     1.4344801    0.1381895    0.0000000 
H     2.7696993    1.2702575    0.0000000 
C     1.1363891    1.8439204    1.2719273 
H     0.0458245    1.7754724    1.2710276 
H     1.3763602    2.9097401    1.2666840 
C     1.6934044    1.1973904    2.5333721 
H     2.7794833    1.2845818    2.5637312 
H     1.2951458    1.6614826    3.4344745 
H     1.4453401    0.1366430    2.5670324 
C    -1.6934044   -1.1973904    2.5333721 
H    -1.4453401   -0.1366430    2.5670324 
H    -2.7794833   -1.2845818    2.5637312 
H    -1.2951458   -1.6614826    3.4344745 
C    -1.1363891   -1.8439204    1.2719273 
H    -1.3763602   -2.9097401    1.2666840 
H    -0.0458245   -1.7754724    1.2710276 
C    -1.6775064   -1.2049285    0.0000000 
H    -2.7696993   -1.2702575    0.0000000 
H    -1.4344801   -0.1381895    0.0000000 
C    -1.1363891   -1.8439204   -1.2719273 
H    -1.3763602   -2.9097401   -1.2666840 
H    -0.0458245   -1.7754724   -1.2710276 
C    -1.6934044   -1.1973904   -2.5333721 
H    -1.4453401   -0.1366430   -2.5670324 
H    -1.2951458   -1.6614826   -3.4344745 
H    -2.7794833   -1.2845818   -2.5637312 
