15
./NCIBLIND10/28
C     1.2101833    0.6986941   -1.3443764 
C     1.2101833   -0.6986941   -1.3443764 
C     0.0000000   -1.3973863   -1.3443760 
C    -1.2101833   -0.6986941   -1.3443764 
C    -1.2101833    0.6986941   -1.3443764 
C     0.0000000    1.3973863   -1.3443760 
H     2.1549316   -1.2441533   -1.3443750 
H     0.0000000   -2.4882873   -1.3443754 
H    -2.1549316   -1.2441533   -1.3443750 
H    -2.1549316    1.2441533   -1.3443750 
H     0.0000000    2.4882873   -1.3443754 
H     2.1549316    1.2441533   -1.3443750 
H    -0.0000000    0.7654654    5.1787488 
H    -0.0000000   -0.7654654    5.1787488 
O     0.0000000    0.0000000    5.7750107 
