18
./S66x8/55.200
C     1.1239089    1.2867697   -1.9960445 
H     1.7991760    2.1311589   -1.9951123 
C     1.6307775   -0.0118677   -1.9485439 
H     2.6990757   -0.1736855   -1.9103846 
C     0.7594803   -1.1004965   -1.9449118 
H     1.1528217   -2.1069979   -1.9067814 
C    -0.6180459   -0.8911597   -1.9885467 
H    -1.2934966   -1.7356455   -1.9846959 
C    -1.1251864    0.4066445   -2.0322446 
H    -2.1937873    0.5692452   -2.0620979 
C    -0.2546154    1.4958259   -2.0359332 
H    -0.6476019    2.5026016   -2.0654477 
O     0.1979009    0.4427114    3.9002473 
H     0.2840011    0.4925845    2.9430537 
C    -0.6982497   -0.6149027    4.1833023 
H    -0.7939704   -0.6716373    5.2642385 
H    -1.6903993   -0.4432050    3.7595121 
H    -0.3317894   -1.5779438    3.8203908 
