12
./S66x8/23B
N     0.6450847   -1.1306277    0.0000000 
H     1.1351154   -2.0144879    0.0000000 
C     1.4487126    0.0220803    0.0000000 
O     2.6642769   -0.0747099    0.0000000 
C     0.6761197    1.2482975    0.0000000 
H     1.1978841    2.1895651    0.0000000 
C    -0.6730433    1.1864126    0.0000000 
H    -1.2934478    2.0706380    0.0000000 
N    -1.3581271    0.0039865    0.0000000 
H    -2.3909168   -0.0051057    0.0000000 
C    -0.7272353   -1.2113620    0.0000000 
O    -1.3244232   -2.2846869    0.0000000 
