30
./S22x5/02_2.0
N     0.0673908    1.2138060   -1.1711924 
C    -0.0344407    0.1609160   -2.0351795 
H    -0.0379091    0.3076947   -3.1023112 
N    -0.1222865   -1.0142144   -1.4316593 
C    -0.0612781   -0.6901560   -0.0977385 
C    -0.0838665   -1.4800063    1.0651219 
N    -0.2075513   -2.8301677    1.0084662 
H     0.0202360   -3.3182943    1.8584926 
H     0.1008240   -3.2618396    0.1517918 
N    -0.0151073   -0.8728862    2.2548203 
C     0.0955344    0.4684736    2.2865920 
H     0.1484436    0.9024335    3.2770553 
N     0.1507916    1.3308174    1.2682323 
C     0.0612781    0.6901560    0.0977385 
H     0.2131238    2.1785319   -1.4200825 
N     6.4999875    1.3189125    0.1151693 
C     6.5383043    0.5441347    1.2482354 
H     6.6714669    1.0842164    2.1744911 
C     6.4176537   -0.8020360    1.2133063 
C     6.4701043   -1.6642277    2.4293805 
H     5.5143211   -2.1618673    2.5850375 
H     7.2309463   -2.4350338    2.3154874 
H     6.6936587   -1.0706289    3.3135379 
C     6.2231749   -1.4403263   -0.0803797 
O     6.0627756   -2.6400817   -0.2550338 
N     6.2343698   -0.5608378   -1.1684844 
H     6.0586810   -0.9779987   -2.0726174 
C     6.3193122    0.8141697   -1.1527981 
O     6.2366438    1.5138539   -2.1491631 
H     6.5383536    2.3225166    0.1791185 
