24
./S66x8/47.95
C     0.7473394    1.2250478   -2.5646814 
H     1.3213667    2.1261689   -2.7322494 
C     1.3932381   -0.0074198   -2.4786327 
H     2.4686655   -0.0626774   -2.5781025 
C     0.6531906   -1.1686068   -2.2620243 
H     1.1544853   -2.1240709   -2.1911925 
C    -0.7328349   -1.0977077   -2.1335194 
H    -1.3063751   -1.9994663   -1.9672108 
C    -1.3788837    0.1346174   -2.2183201 
H    -2.4542746    0.1904348   -2.1174117 
C    -0.6387465    1.2962428   -2.4330711 
H    -1.1396777    2.2525337   -2.4963136 
C     0.1527234    0.2303543    0.9930230 
H     0.2748498    0.4558377   -0.0574034 
C    -0.9383581   -0.5245443    1.4203593 
H    -1.6588627   -0.8810586    0.6966649 
C    -1.0990581   -0.8186696    2.7733093 
H    -1.9461657   -1.4046382    3.1035569 
C    -0.1671756   -0.3576163    3.7018034 
H    -0.2910691   -0.5855824    4.7518109 
C     0.9244095    0.3974858    3.2765631 
H     1.6475286    0.7553190    3.9969458 
C     1.0832134    0.6909708    1.9230718 
H     1.9304713    1.2770456    1.5930245 
