12
./S66x8/54A
C    -1.2075653    0.6971881    0.0000000 
H    -2.1439769    1.2378256    0.0000000 
C    -1.2075653   -0.6971881    0.0000000 
H    -2.1439769   -1.2378256    0.0000000 
C     0.0000000   -1.3943763    0.0000000 
H     0.0000000   -2.4756512    0.0000000 
C     1.2075653   -0.6971881    0.0000000 
H     2.1439769   -1.2378256    0.0000000 
C     1.2075653    0.6971881    0.0000000 
H     2.1439769    1.2378256    0.0000000 
C     0.0000000    1.3943763    0.0000000 
H     0.0000000    2.4756512    0.0000000 
