12
./S66x8/32A
N    -0.0048033   -1.3047102    0.0000000 
H    -0.0030266   -2.3147448    0.0000000 
C    -1.2641552   -0.6913168    0.0000000 
O    -2.2804732   -1.3636101    0.0000000 
C    -1.1979835    0.7598529    0.0000000 
H    -2.1170598    1.3197284    0.0000000 
C     0.0018778    1.3744479    0.0000000 
H     0.1042766    2.4493494    0.0000000 
N     1.1746468    0.6698668    0.0000000 
H     2.0638370    1.1385840    0.0000000 
C     1.2367511   -0.7117999    0.0000000 
O     2.2861123   -1.3256475    0.0000000 
