16
./S66x8/20.200
C    -2.7764169    0.0907699    0.0030949 
O    -2.0728689    1.0640880    0.2428476 
O    -2.3040113   -1.1114529   -0.2851763 
H    -1.3102721   -1.0786480   -0.2705532 
C    -4.2731355    0.1361792    0.0072922 
H    -4.6107057    1.1410934    0.2293513 
H    -4.6475970   -0.1839802   -0.9619606 
H    -4.6519197   -0.5614602    0.7505920 
C     2.7764169   -0.0907699   -0.0030949 
O     2.0728689   -1.0640880   -0.2428476 
O     2.3040113    1.1114529    0.2851763 
H     1.3102721    1.0786480    0.2705532 
C     4.2731355   -0.1361792   -0.0072922 
H     4.6107057   -1.1410934   -0.2293513 
H     4.6519197    0.5614602   -0.7505920 
H     4.6475970    0.1839802    0.9619606 
