7
./S66x8/14B
N    -0.3597351    0.8448849    0.0000000 
H     0.0511162    1.3007692    0.8061483 
H     0.0511162    1.3007692   -0.8061483 
C     0.0125676   -0.5746480    0.0000000 
H    -0.4215194   -1.0543749   -0.8746088 
H     1.0879737   -0.7630254    0.0000000 
H    -0.4215194   -1.0543749    0.8746088 
