15
./S66x8/39B
C    -0.8477278   -0.8669471   -0.3988431 
H    -0.9539816   -0.6919980   -1.4711499 
H    -1.4993653   -1.6962110   -0.1256925 
C     0.6218133   -1.1240102   -0.0547133 
H     1.1170440   -1.7615952   -0.7852975 
H     0.6850925   -1.6242239    0.9127533 
C     1.2619503    0.2813864    0.0362396 
H     1.9122186    0.4740573   -0.8156133 
H     1.8748174    0.3705558    0.9319649 
C     0.0829043    1.2805633    0.0631116 
H    -0.0342472    1.7395337   -0.9191736 
H     0.2284978    2.0820681    0.7855102 
C    -1.1508674    0.4234682    0.3587605 
H    -2.0818558    0.8992056    0.0528474 
H    -1.2162932    0.2141473    1.4292956 
