10
./S66x8/12.150
N    -0.7598788   -0.7290056   -0.3957403 
H    -0.8555662   -1.6978367   -0.1198874 
H    -1.3490185   -0.6155716   -1.2105002 
C    -1.2433243    0.1390740    0.6846374 
H    -1.1391745    1.1761396    0.3767851 
H    -2.2811521   -0.0343300    0.9757675 
H    -0.6114382   -0.0006112    1.5578781 
O     2.8250563    0.8389706   -0.3266804 
H     2.0075388    0.3426981   -0.4998333 
H     3.4069577    0.5804727   -1.0424265 
