12
./S66x8/50A
C     1.2073902    0.6970870    0.0000000 
H     2.1438037    1.2377256    0.0000000 
C     1.2073902   -0.6970870    0.0000000 
H     2.1438037   -1.2377256    0.0000000 
C     0.0000000   -1.3941741    0.0000000 
H     0.0000000   -2.4754513    0.0000000 
C    -1.2073902   -0.6970870    0.0000000 
H    -2.1438037   -1.2377256    0.0000000 
C    -1.2073902    0.6970870    0.0000000 
H    -2.1438037    1.2377256    0.0000000 
C     0.0000000    1.3941741    0.0000000 
H     0.0000000    2.4754513    0.0000000 
