14
./NCIBLIND10/92
C    -1.4264275   -1.2827262   -0.9849769 
H    -1.8034148   -0.5781526   -1.7334913 
H    -1.6672622   -0.9345095    0.0287027 
H    -1.7770443   -2.3072559   -1.1446599 
N     0.0619412   -1.2919364   -1.0803187 
O     0.6159419   -0.2256558   -1.3897847 
O     0.6524326   -2.3435666   -0.8054034 
C     1.3438059    1.5821791    0.8999395 
H     1.5553900    2.1865308    1.7922267 
H     1.2208336    2.2155513    0.0161225 
H     2.1017505    0.8057741    0.7588268 
N     0.0417508    0.8986359    1.1450342 
O    -0.9932492    1.4921274    0.8116978 
O     0.0735514   -0.2169956    1.6860847 
