10
./S22x5/17B
C    -0.3380030    2.0800608    1.1300449 
C     0.8540249    1.3593469    1.1306309 
N     1.4701789    0.9907599    0.0000000 
C     0.8540249    1.3593469   -1.1306309 
C    -0.3380030    2.0800608   -1.1300449 
N    -0.9523059    2.4528838    0.0000000 
H    -0.8103759    2.3643028    2.0618638 
H     1.3208579    1.0670609    2.0623988 
H     1.3208579    1.0670609   -2.0623988 
H    -0.8103759    2.3643028   -2.0618638 
