21
./S66x8/23.105
C    -2.5787443   -0.4372210   -0.0738158 
O    -1.9172940    0.5931558    0.0934250 
N    -2.0165978   -1.6449711   -0.2464733 
H    -1.0021703   -1.7394200   -0.2405185 
H    -2.5902310   -2.4551836   -0.3788745 
C    -4.0842622   -0.3821023   -0.0880784 
H    -4.4239926   -0.0022548    0.8723098 
H    -4.5481323   -1.3459944   -0.2784029 
H    -4.3960048    0.3266306   -0.8507892 
N     2.9415373   -0.5300416   -0.0505709 
H     3.4315668   -1.4059988   -0.1685094 
C     3.7451634    0.6128034    0.0999108 
O     4.9607254    0.5171810    0.0847260 
C     2.9725712    1.8281198    0.2630547 
H     3.4943342    2.7613127    0.3860898 
C     1.6234105    1.7664443    0.2573780 
H     1.0030064    2.6428047    0.3750548 
N     0.9383284    0.5941628    0.1028122 
H    -0.0944621    0.5851017    0.1019749 
C     1.5692183   -0.6103067   -0.0594478 
O     0.9720296   -1.6742227   -0.2012553 
