24
./S66x8/57.95
C     0.5769686    1.0677252   -1.7976876 
H     1.1801274    1.9652459   -1.8051458 
C     1.1873566   -0.1830694   -1.8841702 
H     2.2637600   -0.2551331   -1.9560327 
C     0.4099113   -1.3401825   -1.8765337 
H     0.8834050   -2.3098885   -1.9451515 
C    -0.9779910   -1.2475574   -1.7793217 
H    -1.5809932   -2.1452264   -1.7738139 
C    -1.5890891    0.0027400   -1.6902719 
H    -2.6653251    0.0749439   -1.6141845 
C    -0.8114973    1.1609067   -1.7009399 
H    -1.2858627    2.1307011   -1.6360878 
C     0.4106440    1.9661118    1.9126564 
H     0.0524989    2.1318427    0.8993636 
H     1.4352275    2.3228214    1.9940979 
H    -0.1934529    2.5397477    2.6110091 
C     0.3737976    0.5129487    2.3283652 
O     0.6584260    0.1605873    3.4669033 
N     0.0014024   -0.3527680    1.3491241 
H    -0.1597255    0.0052227    0.4230558 
C    -0.0353905   -1.7796472    1.5672112 
H     0.0426971   -1.9465548    2.6372074 
H    -0.9706310   -2.1979978    1.2004731 
H     0.7937360   -2.2835200    1.0698738 
