25
./S22x5/18_1.0
O    -1.3976209   -1.8858369   -0.3673060 
N    -1.4642549    0.3641830    0.0192300 
C    -4.1857397    0.3696670    0.0360960 
C    -3.4832597    1.5783109    0.2500750 
C    -2.1179498    1.5307049    0.2338380 
C    -2.0773828   -0.8637489   -0.1899410 
C    -3.5156027   -0.8051949   -0.1757590 
H    -5.2678036    0.3707430    0.0411420 
H    -3.9920327    2.5127558    0.4214410 
H    -1.4929199    2.3984098    0.3885020 
H    -4.0401227   -1.7348449   -0.3379270 
H    -0.4265270    0.3612130    0.0073540 
N     1.4327619    0.3639700   -0.0159510 
C     2.1154198   -0.7803449    0.1681100 
C     3.5237587   -0.8016099    0.1545030 
C     4.2185897    0.3735780   -0.0525930 
C     3.5099707    1.5615009   -0.2449760 
C     2.1280138    1.4953319   -0.2175370 
H     4.0459207   -1.7361359    0.3076880 
H     5.2999426    0.3666010   -0.0663350 
H     4.0110917    2.5024308   -0.4130050 
H     1.5339879    2.3893838   -0.3670570 
N     1.3883119   -1.9083039    0.4198150 
H     1.8694709   -2.7812768    0.2940380 
H     0.4089070   -1.9079939    0.1300860 
