34
./S66x8/34.90
C     1.4842589    0.9917106   -2.5333651 
H     2.5703378    1.0789021   -2.5637243 
H     1.2361945   -0.0690367   -2.5670255 
H     1.0860003    1.4558029   -3.4344676 
C     0.9272436    1.6382406   -1.2719203 
H    -0.1633210    1.5697926   -1.2710206 
H     1.1672147    2.7040603   -1.2666771 
C     1.4683608    0.9992487    0.0000000 
H     1.2253345   -0.0674903    0.0000000 
H     2.5605538    1.0645777    0.0000000 
C     0.9272436    1.6382406    1.2719203 
H    -0.1633210    1.5697926    1.2710206 
H     1.1672147    2.7040603    1.2666771 
C     1.4842589    0.9917106    2.5333651 
H     2.5703378    1.0789021    2.5637243 
H     1.0860003    1.4558029    3.4344676 
H     1.2361945   -0.0690367    2.5670255 
C    -1.4842589   -0.9917106    2.5333651 
H    -1.2361945    0.0690367    2.5670255 
H    -2.5703378   -1.0789021    2.5637243 
H    -1.0860003   -1.4558029    3.4344676 
C    -0.9272436   -1.6382406    1.2719203 
H    -1.1672147   -2.7040603    1.2666771 
H     0.1633210   -1.5697926    1.2710206 
C    -1.4683608   -0.9992487    0.0000000 
H    -2.5605538   -1.0645777    0.0000000 
H    -1.2253345    0.0674903    0.0000000 
C    -0.9272436   -1.6382406   -1.2719203 
H    -1.1672147   -2.7040603   -1.2666771 
H     0.1633210   -1.5697926   -1.2710206 
C    -1.4842589   -0.9917106   -2.5333651 
H    -1.2361945    0.0690367   -2.5670255 
H    -1.0860003   -1.4558029   -3.4344676 
H    -2.5703378   -1.0789021   -2.5637243 
