17
./NCIBLIND10/12
C     0.7028831    1.2174292    1.1176671 
C     1.4057691    0.0000000    1.1176693 
C     0.7028831   -1.2174292    1.1176671 
C    -0.7028846   -1.2174318    1.1176693 
C    -1.4057662    0.0000000    1.1176671 
C    -0.7028846    1.2174318    1.1176693 
H     1.2504987    2.1659272    1.1176661 
H     2.5010030    0.0000000    1.1176700 
H     1.2504987   -2.1659272    1.1176661 
H    -1.2505015   -2.1659321    1.1176700 
H    -2.5009973    0.0000000    1.1176661 
H    -1.2505015    2.1659321    1.1176700 
C    -0.0000000    0.0000000   -2.6824049 
H    -0.0000000    0.0000000   -1.5828737 
H     0.5183252    0.8977656   -3.0489129 
H    -1.0366504    0.0000000   -3.0489129 
H     0.5183252   -0.8977656   -3.0489129 
