24
./S66x8/15.110
C    -2.0537930    0.3813424    1.9893508 
H    -2.5355860    1.0676179    2.6813406 
H    -1.0027285    0.6416485    1.8902994 
H    -2.1463469   -0.6196353    2.4065057 
C    -2.8008363    0.4270935    0.6742817 
O    -4.0127401    0.2434910    0.6168122 
N    -2.0223466    0.6778867   -0.4077567 
H    -1.0256147    0.7945341   -0.2759408 
C    -2.5793446    0.7617638   -1.7375012 
H    -3.6443143    0.5654689   -1.6584112 
H    -2.4300918    1.7519104   -2.1660772 
H    -2.1289186    0.0239709   -2.4009064 
C     0.9077009   -1.6930641    0.2859374 
H     1.4659257   -2.6030673    0.0800294 
H    -0.0209910   -1.6995936   -0.2783880 
H     0.6484820   -1.6696174    1.3428784 
C     1.6753368   -0.4386521   -0.0502993 
O     1.1301502    0.6627847   -0.1072717 
N     3.0020951   -0.6074658   -0.2640473 
H     3.3784164   -1.5347115   -0.1872900 
C     3.8893332    0.4990001   -0.5529958 
H     3.2751409    1.3898099   -0.6328195 
H     4.6167478    0.6384659    0.2444075 
H     4.4143235    0.3390184   -1.4921382 
