23
./S66x8/29.150
N     1.0762792   -0.1154577   -2.3690489 
C     0.4774588   -1.3025825   -2.5453082 
H     1.1170018   -2.1736569   -2.4794671 
C    -0.8857901   -1.4527831   -2.7875941 
H    -1.3048919   -2.4410028   -2.9121432 
C    -1.6823438   -0.3140738   -2.8552269 
H    -2.7454889   -0.3900882   -3.0375157 
C    -1.0780985    0.9265026   -2.6789369 
H    -1.6532904    1.8403668   -2.7104040 
C     0.2932424    0.9719751   -2.4414112 
H     0.7902184    1.9239182   -2.3012120 
N    -0.7000524   -0.3435577    2.2532018 
H    -1.5949414   -0.7754212    2.0685983 
C    -0.6997975    1.0542521    2.3462128 
O    -1.7396806    1.6824519    2.2313626 
C     0.6196972    1.6133334    2.5737758 
H     0.7210136    2.6805556    2.6696440 
C     1.6895708    0.7946411    2.6452959 
H     2.6934499    1.1633058    2.7937224 
N     1.5715097   -0.5626521    2.5327412 
H     2.3849457   -1.1548395    2.5245736 
C     0.3710627   -1.2098846    2.3063595 
O     0.2789255   -2.4153026    2.1727803 
