20
./S66x8/22.90
C    -2.5533093   -0.4814205   -0.0640490 
O    -1.9067659    0.5409472    0.1223214 
O    -2.0177726   -1.6715201   -0.2895986 
H    -1.0263629   -1.6051840   -0.2837289 
C    -4.0511079   -0.5222510   -0.0618547 
H    -4.4463319    0.4684449    0.1265738 
H    -4.4039394   -0.8931819   -1.0212173 
H    -4.3927974   -1.2166424    0.7020244 
N     2.5868532   -0.7245786   -0.1557229 
H     2.9800583   -1.6399688   -0.3274423 
C     3.5083811    0.3235370    0.0257302 
O     4.7055275    0.1052412   -0.0271497 
C     2.8693150    1.6029994    0.2663374 
H     3.4888498    2.4699243    0.4178147 
C     1.5222308    1.6829895    0.2957186 
H     0.9993906    2.6114365    0.4710168 
N     0.7185001    0.5923075    0.1053126 
H    -0.3055518    0.6622552    0.1291028 
C     1.2184326   -0.6579152   -0.1288596 
O     0.5064001   -1.6474201   -0.3023298 
