25
./S66x8/61.125
C    -2.4017573   -0.1164839   -1.0390311 
H    -2.6171301   -0.7093356   -1.9279313 
H    -2.3527362   -0.7998553   -0.1915415 
H    -3.2384380    0.5635345   -0.8829649 
C    -1.0881105    0.6378690   -1.2009658 
H    -0.9151116    1.2690229   -0.3256623 
H    -1.1525892    1.3140363   -2.0568233 
C     0.1000898   -0.2961192   -1.3903792 
H     0.1830320   -0.9565480   -0.5223270 
H    -0.0872618   -0.9474077   -2.2491548 
C     1.4165893    0.4397656   -1.6013654 
H     1.5852263    1.1263629   -0.7679184 
H     1.3396823    1.0623344   -2.4956585 
C     2.6011640   -0.5082698   -1.7329056 
H     2.4623292   -1.1846228   -2.5761223 
H     3.5350886    0.0302842   -1.8863336 
H     2.7087817   -1.1188189   -0.8362898 
C    -0.7410410   -0.3032721    2.9220668 
O    -1.1636549   -1.4184523    2.7249202 
O    -1.5547333    0.7556934    3.1546562 
H    -2.4554954    0.4013129    3.1141205 
C     0.6992261    0.1063940    2.9392721 
H     1.3250492   -0.7637870    2.7811170 
H     0.8752635    0.8406676    2.1561476 
H     0.9365374    0.5756949    3.8910745 
