27
./S66x8/42.150
N     0.1742586   -0.9943690   -2.6745601 
H     0.4289266   -1.9464327   -2.4486386 
C    -1.2005202   -0.7233642   -2.7389231 
O    -2.0151172   -1.6059450   -2.5315059 
C    -1.4981857    0.6614759   -3.0608470 
H    -2.5278269    0.9659708   -3.1345118 
C    -0.4895838    1.5332827   -3.2635157 
H    -0.6599062    2.5719632   -3.5045706 
N     0.8241576    1.1563114   -3.1715760 
H     1.5682216    1.8191995   -3.3124467 
C     1.2327905   -0.1302179   -2.8621626 
O     2.4008334   -0.4513961   -2.7665271 
C     1.0811925   -1.0382222    2.3910583 
H     1.5350451   -1.1302784    1.4030757 
H     1.6256950   -1.7022025    3.0602559 
C     1.1355060    0.4277298    2.8239942 
H     2.0937960    0.9006287    2.6132700 
H     0.9473907    0.5093673    3.8972174 
C    -0.0318456    1.0405443    2.0532230 
H     0.2424587    1.1293259    0.9997514 
H    -0.3162600    2.0316854    2.4048571 
C    -1.1487901    0.0029724    2.2242514 
H    -1.8743293    0.0265862    1.4128794 
H    -1.6928757    0.2076695    3.1465000 
C    -0.4257537   -1.3635755    2.3279082 
H    -0.6684183   -2.0077316    1.4845486 
H    -0.7408599   -1.8909779    3.2269947 
