16
./S22x5/16B
H    -2.9417648    0.8953829    2.2239048 
C    -2.0220668    0.4258540    1.9013549 
C    -0.8149419    1.0740449    2.1066978 
H    -0.7851529    2.0443808    2.5856088 
C     0.3704290    0.4492850    1.6847459 
C     1.7508619    0.8038939    1.7193999 
H     2.1870108    1.6998279    2.1275898 
C     2.4451358   -0.2310740    1.1353309 
N     1.5646459   -1.2137809    0.7555379 
C     0.2861210   -0.8269489    1.0618749 
C    -0.9284669   -1.4853119    0.8606939 
H    -0.9729199   -2.4554848    0.3834010 
C    -2.0792848   -0.8417669    1.2876439 
H    -3.0389968   -1.3203849    1.1468399 
H     1.8075739   -2.0366958    0.2333040 
H     3.5028787   -0.3485340    0.9695229 
