18
./S66x8/30.200
C     0.8355202    1.1151643   -2.3088736 
H     1.4843270    1.9806059   -2.3107404 
C     1.3832779   -0.1661499   -2.3065080 
H     2.4571520   -0.2952074   -2.3075007 
C     0.5475576   -1.2813190   -2.3085880 
H     0.9729391   -2.2758072   -2.3104938 
C    -0.8355202   -1.1151643   -2.3088736 
H    -1.4843270   -1.9806059   -2.3107404 
C    -1.3832779    0.1661499   -2.3065080 
H    -2.4571520    0.2952074   -2.3075007 
C    -0.5475576    1.2813190   -2.3085880 
H    -0.9729391    2.2758072   -2.3104938 
C     0.6557807   -0.1167904    4.6205576 
H     1.0472415   -1.1239092    4.6160906 
H     1.3708545    0.6932736    4.6160564 
C    -0.6557807    0.1167904    4.6205576 
H    -1.3708545   -0.6932736    4.6160564 
H    -1.0472415    1.1239092    4.6160906 
