10
./S22x5/05_1.5
C     0.0000000    0.0000000    0.0000000 
H     0.3645146    0.5132394   -0.8885123 
H     0.3645146    0.5131056    0.8885896 
H     0.3642157   -1.0262263   -0.0000773 
H    -1.0891229    0.0003110    0.0000000 
C     5.5774826    0.0000000    0.0000000 
H     6.6666055   -0.0003110   -0.0000000 
H     5.2129680   -0.5131056   -0.8885896 
H     5.2129680   -0.5132394    0.8885123 
H     5.2132669    1.0262263    0.0000773 
