29
./S66x8/40.105
C     0.7929538   -2.5968485    0.0000000 
H     1.8736172   -2.5499146    0.0000000 
C     0.0966141   -2.6275240    1.2071947 
H     0.6367306   -2.6035265    2.1439330 
C    -1.2957515   -2.6894105    1.2070999 
H    -1.8359580   -2.7126674    2.1436732 
C    -1.9918847   -2.7205335    0.0000000 
H    -3.0722992   -2.7669102    0.0000000 
C    -1.2957515   -2.6894105   -1.2070999 
H    -1.8359580   -2.7126674   -2.1436732 
C     0.0966141   -2.6275240   -1.2071947 
H     0.6367306   -2.6035265   -2.1439330 
C     0.4222209    1.8779737    0.0000000 
C     1.1877430    1.4350792    1.2444046 
H     2.1857671    1.8760970    1.2646261 
H     0.6640191    1.7419296    2.1512502 
H     1.2920738    0.3494873    1.2651991 
C     0.2843971    3.3978952    0.0000000 
H    -0.2606425    3.7383343   -0.8811182 
H    -0.2606425    3.7383343    0.8811182 
H     1.2642468    3.8779811    0.0000000 
C    -0.9632575    1.2369095    0.0000000 
H    -1.5307494    1.5395749   -0.8794300 
H    -1.5307494    1.5395749    0.8794300 
H    -0.8896869    0.1486997    0.0000000 
C     1.1877430    1.4350792   -1.2444046 
H     1.2920738    0.3494873   -1.2651991 
H     0.6640191    1.7419296   -2.1512502 
H     2.1857671    1.8760970   -1.2646261 
