16
./NCIBLIND10/76
C     4.8099697    0.7060286    0.0000000 
H     4.6843272    1.7943096    0.0000000 
H     5.3512751    0.3730672   -0.8964005 
H     5.3512751    0.3730672    0.8964005 
O     3.4632637    0.1661382    0.0000000 
C     3.4211529   -1.1946581    0.0000000 
O     4.4017018   -1.9176220    0.0000000 
H     2.3703926   -1.5286445    0.0000000 
C    -3.7272550    1.0608455    0.0000000 
H    -3.9560794    2.1316661    0.0000000 
H    -3.1585090    0.7797551   -0.8957090 
H    -3.1585090    0.7797551    0.8957090 
O    -5.0223000    0.3981327    0.0000000 
C    -4.9474186   -0.9466333    0.0000000 
O    -3.9183387   -1.6028159    0.0000000 
H    -5.9649482   -1.3723915    0.0000000 
