11
./S66x8/29A
N     0.0000000    0.0000000    1.6122597 
C    -1.1421803    0.0000000    0.9097075 
H    -2.0574773    0.0000000    1.4878519 
C    -1.1943013    0.0000000   -0.4820436 
H    -2.1506786    0.0000000   -0.9850924 
C     0.0000000    0.0000000   -1.1958861 
H     0.0000000    0.0000000   -2.2772205 
C     1.1943013    0.0000000   -0.4820436 
H     2.1506786    0.0000000   -0.9850924 
C     1.1421803    0.0000000    0.9097075 
H     2.0574773    0.0000000    1.4878519 
