16
./NCIBLIND10/75
C     4.3102500    0.7231089    0.0000000 
H     4.1846076    1.8113899    0.0000000 
H     4.8515555    0.3901475   -0.8963872 
H     4.8515555    0.3901475    0.8963872 
O     2.9635440    0.1832185    0.0000000 
C     2.9214332   -1.1775777    0.0000000 
O     3.9019822   -1.9005417    0.0000000 
H     1.8706730   -1.5115642    0.0000000 
C    -3.2275354    1.0437651    0.0000000 
H    -3.4563598    2.1145858    0.0000000 
H    -2.6587894    0.7626747   -0.8957223 
H    -2.6587894    0.7626747    0.8957223 
O    -4.5225804    0.3810523    0.0000000 
C    -4.4476989   -0.9637136    0.0000000 
O    -3.4186191   -1.6198963    0.0000000 
H    -5.4652286   -1.3894718    0.0000000 
