18
./S66x8/07.95
O    -2.3028531   -0.5955239   -1.0838368 
H    -1.3829498   -0.7655450   -0.8253933 
C    -3.1162491   -1.1198244   -0.0568851 
H    -4.1515669   -0.9173606   -0.3200281 
H    -3.0018191   -2.2004796    0.0571062 
H    -2.9187069   -0.6541480    0.9132146 
C    -0.1850571    1.5240096    0.3586200 
H     0.3213365    2.4854586    0.3237496 
H    -0.5956012    1.3778737    1.3564966 
H    -1.0147049    1.5144963   -0.3428855 
C     0.7305733    0.3690707    0.0427038 
O     0.3063785   -0.7508401   -0.2423778 
N     2.0567102    0.6307950    0.1019032 
H     2.3547226    1.5412232    0.3995903 
C     3.0391162   -0.4093163   -0.1208407 
H     2.6825590   -1.0602536   -0.9130176 
H     3.9794855    0.0442076   -0.4193544 
H     3.1986263   -1.0138432    0.7712349 
