13
./S22x5/18B
N     1.4327619    0.3639700   -0.0159510 
C     2.1154198   -0.7803449    0.1681100 
C     3.5237587   -0.8016099    0.1545030 
C     4.2185897    0.3735780   -0.0525930 
C     3.5099707    1.5615009   -0.2449760 
C     2.1280138    1.4953319   -0.2175370 
H     4.0459207   -1.7361359    0.3076880 
H     5.2999426    0.3666010   -0.0663350 
H     4.0110917    2.5024308   -0.4130050 
H     1.5339879    2.3893838   -0.3670570 
N     1.3883119   -1.9083039    0.4198150 
H     1.8694709   -2.7812768    0.2940380 
H     0.4089070   -1.9079939    0.1300860 
