15
./S66x8/04.200
O    -4.9382999    0.2657237    0.1902924 
H    -5.4577423    1.0642545    0.2918699 
H    -4.0213776    0.5819577    0.2047325 
C    -0.2500809   -1.3722913   -0.1519689 
H     0.3998819   -2.2334032   -0.2848843 
H    -0.9310569   -1.2948192   -0.9958342 
H    -0.8630978   -1.5110873    0.7350394 
C     0.5046511   -0.0742784   -0.0193754 
O    -0.0720643    1.0010164    0.1372133 
N     1.8552843   -0.1717811   -0.0839934 
H     2.2562359   -1.0823151   -0.2135085 
C     2.7235264    0.9801894    0.0254497 
H     2.0870322    1.8484898    0.1602343 
H     3.3891159    0.8887342    0.8815426 
H     3.3179921    1.1096099   -0.8768095 
