27
./S66x8/39.100
C     0.7637513    0.8704379   -1.8637359 
H     1.4356823    1.6822002   -1.6196241 
C     1.2358584   -0.4406445   -1.8908389 
H     2.2739646   -0.6463445   -1.6670155 
C     0.3704430   -1.4863431   -2.2074583 
H     0.7363937   -2.5038865   -2.2276708 
C    -0.9667274   -1.2207780   -2.4978485 
H    -1.6382537   -2.0323672   -2.7425005 
C    -1.4388593    0.0905992   -2.4714497 
H    -2.4764785    0.2964957   -2.6961943 
C    -0.5737007    1.1362177   -2.1539141 
H    -0.9394936    2.1539042   -2.1336492 
C    -0.7665665   -0.7269133    1.3459502 
H    -0.8728203   -0.5519641    0.2736433 
H    -1.4182041   -1.5561772    1.6191008 
C     0.7029747   -0.9839764    1.6900801 
H     1.1982055   -1.6215614    0.9594958 
H     0.7662539   -1.4841901    2.6575467 
C     1.3431117    0.4214203    1.7810329 
H     1.9933800    0.6140912    0.9291800 
H     1.9559789    0.5105897    2.6767583 
C     0.1640656    1.4205973    1.8079050 
H     0.0469141    1.8795677    0.8256196 
H     0.3096592    2.2221022    2.5303036 
C    -1.0697062    0.5635021    2.1035538 
H    -2.0006947    1.0392396    1.7976407 
H    -1.1351319    0.3541812    3.1740891 
