21
./S66x8/23.110
C    -2.6283444   -0.4379674   -0.0744404 
O    -1.9668940    0.5924094    0.0928004 
N    -2.0661979   -1.6457176   -0.2470978 
H    -1.0517704   -1.7401665   -0.2411430 
H    -2.6398311   -2.4559301   -0.3794991 
C    -4.1338623   -0.3828487   -0.0887029 
H    -4.4735927   -0.0030013    0.8716852 
H    -4.5977324   -1.3467409   -0.2790275 
H    -4.4456048    0.3258841   -0.8514137 
N     2.9787374   -0.5294817   -0.0501025 
H     3.4687669   -1.4054389   -0.1680410 
C     3.7823634    0.6133632    0.1003792 
O     4.9979254    0.5177409    0.0851944 
C     3.0097712    1.8286797    0.2635231 
H     3.5315342    2.7618725    0.3865583 
C     1.6606105    1.7670042    0.2578464 
H     1.0402065    2.6433645    0.3755233 
N     0.9755284    0.5947226    0.1032806 
H    -0.0572621    0.5856616    0.1024433 
C     1.6064184   -0.6097469   -0.0589794 
O     1.0092297   -1.6736628   -0.2007869 
