16
./S22x5/15B
H     0.8065239   -0.4358870    0.0000000 
N    -0.1442410   -0.7686929    0.0000000 
C    -0.5161120   -2.0893218    0.0000000 
C    -1.8898759   -2.1814488    0.0000000 
C    -2.3932318   -0.8470829    0.0000000 
C    -1.2640649    0.0195890    0.0000000 
C    -1.3895999    1.4117669    0.0000000 
C    -2.6726498    1.9366449    0.0000000 
C    -3.8054507    1.0974789    0.0000000 
C    -3.6798167   -0.2817210    0.0000000 
H     0.2310020   -2.8653168    0.0000000 
H    -2.4585758   -3.0956048    0.0000000 
H    -0.5188730    2.0539518    0.0000000 
H    -2.8077568    3.0097858    0.0000000 
H    -4.7905986    1.5439369    0.0000000 
H    -4.5580187   -0.9142919    0.0000000 
