12
./S66x8/41A
N    -0.0254543   -1.3044862    0.0000000 
H    -0.0396154   -2.3154469    0.0000000 
C    -1.2769853   -0.6711282    0.0000000 
O    -2.3029884   -1.3289883    0.0000000 
C    -1.1872417    0.7786931    0.0000000 
H    -2.0971189    1.3535137    0.0000000 
C     0.0227946    1.3743356    0.0000000 
H     0.1413880    2.4477445    0.0000000 
N     1.1859083    0.6519672    0.0000000 
H     2.0827949    1.1085410    0.0000000 
C     1.2289826   -0.7316920    0.0000000 
O     2.2675357   -1.3630536    0.0000000 
