20
./S66x8/52.90
C     0.9203958    0.8850771   -1.6400253 
H     1.6161450    1.7099146   -1.5719967 
C     1.3873725   -0.4031496   -1.8990474 
H     2.4458399   -0.5772254   -2.0350516 
C     0.4904431   -1.4676551   -1.9756214 
H     0.8532767   -2.4674046   -2.1700509 
C    -0.8740114   -1.2436203   -1.7971828 
H    -1.5694446   -2.0696406   -1.8539224 
C    -1.3412717    0.0443964   -1.5377963 
H    -2.3980807    0.2179999   -1.3894780 
C    -0.4441297    1.1097630   -1.4564376 
H    -0.8041397    2.1037526   -1.2332820 
C    -0.1817742    0.5811157    2.0951933 
O    -0.6499638    1.6305624    1.7159330 
O     0.2214383   -0.3964475    1.2559081 
H     0.0527335   -0.0705339    0.3545028 
C     0.0281801    0.1841287    3.5265991 
H    -0.2817861    0.9934652    4.1765880 
H    -0.5479007   -0.7124953    3.7435502 
H     1.0766775   -0.0520034    3.6916177 
