14
./S66x8/18.200
O    -5.1964782   -0.2473225    0.0000000 
H    -5.5154069    0.6561672    0.0000000 
H    -4.2309877   -0.1474572    0.0000000 
N    -0.2449184    0.0536578    0.0000000 
C     0.4509124    0.0196600    1.1450139 
H    -0.1338204    0.0432494    2.0558438 
C     1.8399327   -0.0455236    1.1951004 
H     2.3457759   -0.0704004    2.1494624 
C     2.5511750   -0.0786212    0.0000000 
H     3.6310149   -0.1303948    0.0000000 
C     1.8399327   -0.0455236   -1.1951004 
H     2.3457759   -0.0704004   -2.1494624 
C     0.4509124    0.0196600   -1.1450139 
H    -0.1338204    0.0432494   -2.0558438 
