24
./S66x8/17.105
N    -1.5332704    1.1642767    0.0000000 
H    -0.5048487    1.2155135    0.0000000 
C    -2.1000958   -0.0989178    0.0000000 
O    -1.3973701   -1.1120085    0.0000000 
C    -3.5468935   -0.1208227    0.0000000 
H    -4.0528617   -1.0703261    0.0000000 
C    -4.2252912    1.0455998    0.0000000 
H    -5.3041683    1.0922930    0.0000000 
N    -3.5781081    2.2469180    0.0000000 
H    -4.0871093    3.1153865    0.0000000 
C    -2.1947499    2.3785288    0.0000000 
O    -1.6431149    3.4585443    0.0000000 
N     3.4382441    0.0507147    0.0000000 
H     3.8854879    0.9572879    0.0000000 
C     4.2942919   -1.0639031    0.0000000 
O     5.5037439   -0.9121986    0.0000000 
C     3.5800735   -2.3260766    0.0000000 
H     4.1466580   -3.2411073    0.0000000 
C     2.2299045   -2.3298945    0.0000000 
H     1.6529412   -3.2428592    0.0000000 
N     1.4919130   -1.1790136    0.0000000 
H     0.4655768   -1.2004564    0.0000000 
C     2.0646840    0.0656514    0.0000000 
O     1.4143631    1.1068697    0.0000000 
