12
./S66x8/05.110
O    -1.6397657    0.4623963   -0.2083418 
H    -0.6955334    0.4386000   -0.4124774 
C    -2.1556962   -0.8256091   -0.4736816 
H    -3.2135758   -0.8105867   -0.2249853 
H    -2.0602410   -1.1069922   -1.5251317 
H    -1.6784665   -1.6005941    0.1315703 
O     1.4310277    0.3547111   -0.5114837 
H     1.8998170    0.9690956   -1.0811497 
C     1.9398616    0.5117301    0.8102336 
H     1.3862926   -0.1764664    1.4403645 
H     2.9988577    0.2612912    0.8669567 
H     1.7874220    1.5224241    1.1881261 
