23
./S66x8/49.150
C     0.8581541    1.2244259   -2.7625376 
H     1.5194829    2.0697290   -2.6286101 
C     1.3885862   -0.0509481   -2.9508316 
H     2.4602605   -0.1949654   -2.9591402 
C     0.5371450   -1.1405371   -3.1288002 
H     0.9488041   -2.1295192   -3.2770694 
C    -0.8446389   -0.9549562   -3.1156084 
H    -1.5053043   -1.7999508   -3.2536292 
C    -1.3749688    0.3201416   -2.9243790 
H    -2.4466407    0.4639231   -2.9119602 
C    -0.5235363    1.4099294   -2.7492537 
H    -0.9358474    2.3993135   -2.6046261 
N     0.0177323    0.2208780    4.7770309 
C     0.1724161    1.1588396    3.8321540 
H     0.3141869    2.1713656    4.1900557 
C     0.1582068    0.8915498    2.4656545 
H     0.2884469    1.6925756    1.7517691 
C    -0.0261315   -0.4200799    2.0403641 
H    -0.0426979   -0.6631986    0.9870162 
C    -0.1879804   -1.4051142    3.0092232 
H    -0.3345234   -2.4403252    2.7344517 
C    -0.1587779   -1.0377811    4.3523127 
H    -0.2823741   -1.7852951    5.1264137 
