7
./S66x8/66A
N    -0.7949344   -0.4677422    0.0000000 
H    -1.2929794   -0.1182619    0.8037477 
H    -1.2929794   -0.1182619   -0.8037477 
C     0.5595857    0.0821247    0.0000000 
H     1.1008855   -0.2765564   -0.8724439 
H     0.6195367    1.1752542    0.0000000 
H     1.1008855   -0.2765564    0.8724439 
