12
./S66x8/16A
C     0.5154127   -0.4734604    1.7567573 
H     1.5750355   -0.3984678    1.5260718 
H     0.2880207   -1.4805141    2.0985408 
H     0.2700895    0.2093959    2.5666547 
C    -0.3752176   -0.1559538    0.5769585 
O    -1.5976064   -0.1835467    0.6670223 
N     0.2862970    0.1550710   -0.5679302 
H     1.2935259    0.1559089   -0.5637506 
C    -0.4184066    0.4815690   -1.7856634 
H    -1.4806545    0.4084198   -1.5737630 
H    -0.1905875    1.4944379   -2.1152042 
H    -0.1659087   -0.2128597   -2.5856939 
