8
./S66x8/20A
C     0.5544489    0.1536963    0.0386589 
O     1.2579969    1.1270142    0.2784116 
O     1.0268546   -1.0485264   -0.2496122 
H     2.0205937   -1.0157216   -0.2349892 
C    -0.9422696    0.1991055    0.0428563 
H    -1.2798397    1.2040196    0.2649153 
H    -1.3167310   -0.1210538   -0.9263965 
H    -1.3210537   -0.4985338    0.7861560 
