13
./S66x8/06.200
O    -2.8009830    1.0452472   -0.0018896 
H    -1.8284392    1.0711270   -0.0069364 
C    -3.1707335   -0.3144990   -0.0066614 
H    -4.2569864   -0.3637789   -0.0024103 
H    -2.8174688   -0.8452348   -0.8960192 
H    -2.8101426   -0.8534040    0.8748041 
N     2.1042405    0.8514360   -0.0164401 
H     2.4748601    1.3592125    0.7766923 
H     2.4749834    1.3157745   -0.8356989 
C     2.5819925   -0.5345975    0.0210211 
H     2.1901076   -1.0686228   -0.8411706 
H     3.6687036   -0.6413326    0.0240556 
H     2.1898661   -1.0213276    0.9106533 
