23
./S66x8/49.200
C     0.8667591    1.3631621   -3.4451298 
H     1.5280879    2.2084652   -3.3112023 
C     1.3971912    0.0877880   -3.6334237 
H     2.4688656   -0.0562292   -3.6417324 
C     0.5457500   -1.0018009   -3.8113924 
H     0.9574092   -1.9907830   -3.9596616 
C    -0.8360338   -0.8162200   -3.7982006 
H    -1.4966993   -1.6612147   -3.9362214 
C    -1.3663638    0.4588778   -3.6069712 
H    -2.4380356    0.6026593   -3.5945524 
C    -0.5149312    1.5486656   -3.4318459 
H    -0.9272423    2.5380497   -3.2872183 
N     0.0083449    0.0695294    5.5216769 
C     0.1630287    1.0074910    4.5768000 
H     0.3047996    2.0200170    4.9347017 
C     0.1488195    0.7402012    3.2103006 
H     0.2790595    1.5412270    2.4964151 
C    -0.0355188   -0.5714284    2.7850101 
H    -0.0520853   -0.8145471    1.7316622 
C    -0.1973678   -1.5564628    3.7538692 
H    -0.3439108   -2.5916737    3.4790977 
C    -0.1681653   -1.1891297    5.0969587 
H    -0.2917614   -1.9366436    5.8710597 
