18
./S66x8/64.95
C     1.6922479    0.2867657   -1.1008066 
H     1.7041064    1.2429911   -1.6190013 
H     2.3778522   -0.3998015   -1.5885048 
H     2.0322787    0.4331134   -0.0769374 
C     0.3243608   -0.3491081   -1.0563563 
O     0.1617857   -1.5258629   -0.7590785 
N    -0.7109692    0.4862653   -1.3488426 
H    -0.5064783    1.4503099   -1.5367328 
C    -2.0874791    0.0497218   -1.2758652 
H    -2.0822046   -1.0356543   -1.2700064 
H    -2.5780101    0.3995735   -0.3673140 
H    -2.6452109    0.4045043   -2.1391790 
C     0.0042352    0.3025252    2.3223631 
H    -0.0006464    1.0446990    3.1082457 
H    -0.6442976    0.4702938    1.4736795 
C     0.7727455   -0.7844368    2.3921727 
H     1.4180504   -0.9562624    3.2423006 
H     0.7676335   -1.5196369    1.5998634 
