7
./S66x8/12A
N     0.4372143   -0.8060704    0.0000000 
H     0.0775654   -1.2994574    0.8066751 
H     0.0775654   -1.2994574   -0.8066751 
C    -0.0705962    0.5711100    0.0000000 
H     0.3187518    1.0903914   -0.8718086 
H    -1.1592525    0.6530925    0.0000000 
H     0.3187518    1.0903914    0.8718086 
