10
./S22x5/07_1.2
C     0.0000000   -0.6675779    0.0000000 
C     0.0000000    0.6675779    0.0000000 
H    -0.0015260   -1.2322529   -0.9236209 
H    -0.0015260   -1.2322529    0.9236209 
H    -0.0015260    1.2322529    0.9236209 
H    -0.0015260    1.2322529   -0.9236209 
C     5.5755638    0.0000000    0.0000000 
C     4.3683009    0.0000000    0.0000000 
H     3.3024130    0.0000000    0.0000000 
H     6.6389897    0.0000000    0.0000000 
