19
./S66x8/11.100
N    -2.5137683   -0.0016930   -0.3833320 
H    -1.8131823   -0.2546548   -1.0720443 
H    -3.4053122   -0.2891507   -0.7648597 
C    -2.2495744   -0.7503552    0.8443619 
H    -3.0012095   -0.5017953    1.5915296 
H    -2.2320836   -1.8383579    0.7304165 
H    -1.2836023   -0.4475563    1.2458125 
C     0.3498187    1.8714049   -0.6388278 
H     0.4744371    2.2825816   -1.6378721 
H     0.8563900    2.5123974    0.0789567 
H    -0.7165931    1.8448753   -0.4204064 
C     0.8618103    0.4536072   -0.6365338 
O     0.4018305   -0.4121292   -1.3757084 
N     1.8482933    0.1805748    0.2557970 
H     2.2480543    0.9355076    0.7811497 
C     2.4367387   -1.1390157    0.3332965 
H     1.6485620   -1.8803458    0.2402759 
H     3.1579984   -1.3110111   -0.4652479 
H     2.9313922   -1.2548839    1.2932360 
