30
./S22x5/01_1.2
N     0.0000000    0.0000000    0.0000000 
C    -0.7386850   -0.1578898    1.1103553 
C    -2.1394527   -0.1680535    0.9647125 
C    -2.6294970   -0.0086658   -0.3312013 
N    -1.9183097    0.1526347   -1.4548439 
C    -0.6142622    0.1436599   -1.1935470 
N    -3.1529808   -0.3106972    1.8835185 
C    -4.2474657   -0.2372003    1.1448749 
N    -3.9942504   -0.0566045   -0.1870301 
N    -0.1361794   -0.2894338    2.3004279 
H     0.0551613    0.2659590   -2.0356549 
H    -5.2525850   -0.3089583    1.5254065 
H    -4.6684045    0.0262453   -0.9296568 
H     0.8768764   -0.3291057    2.3598112 
H    -0.7085813   -0.4524070    3.1082404 
N     5.2197319    0.1556275   -1.1280751 
C     5.9126024   -0.0315735    0.0396525 
C     5.2909867   -0.2131805    1.2259992 
C     3.8353458   -0.2054595    1.2379589 
N     3.2244786   -0.0089138    0.0131090 
C     3.8380881    0.1762392   -1.2054170 
C     6.0102584   -0.4199509    2.5170007 
O     3.1669638   -0.3620316    2.2616541 
O     3.2398588    0.3425065   -2.2533676 
H     5.7000376    0.2884583   -2.0023008 
H     2.1826225    0.0000000    0.0000000 
H     6.9898471   -0.0247799   -0.0496500 
H     5.7406782    0.3548412    3.2330185 
H     5.7295703   -1.3730981    2.9623973 
H     7.0880298   -0.4036170    2.3683849 
