20
./S66x8/63.125
C     0.8078401    1.1624176   -1.7322950 
H     1.4475536    2.0342601   -1.7183772 
C     1.3191398   -0.0807554   -1.3636130 
H     2.3511126   -0.1718911   -1.0549713 
C     0.4939574   -1.2040917   -1.3796223 
H     0.8895520   -2.1689658   -1.0933516 
C    -0.8417766   -1.0847154   -1.7605399 
H    -1.4816545   -1.9564925   -1.7693805 
C    -1.3525333    0.1593447   -2.1286727 
H    -2.3881798    0.2522848   -2.4260757 
C    -0.5269865    1.2828389   -2.1155779 
H    -0.9225687    2.2476544   -2.4025910 
C     0.5350622   -0.3149826    2.7270492 
O     1.7305549   -0.1510318    2.8035650 
O    -0.0444395   -1.5263875    2.9264876 
H     0.6900114   -2.1274960    3.1195257 
C    -0.4868220    0.7289490    2.4063680 
H    -0.0085276    1.6998953    2.3595452 
H    -0.9396221    0.4957528    1.4436600 
H    -1.2716730    0.7234125    3.1588675 
