27
./S66x8/42.200
N     0.1500954   -0.9812029   -3.4586331 
H     0.4047634   -1.9332666   -3.2327116 
C    -1.2246834   -0.7101980   -3.5229960 
O    -2.0392804   -1.5927789   -3.3155788 
C    -1.5223489    0.6746420   -3.8449200 
H    -2.5519901    0.9791370   -3.9185848 
C    -0.5137470    1.5464488   -4.0475887 
H    -0.6840694    2.5851293   -4.2886436 
N     0.7999944    1.1694775   -3.9556490 
H     1.5440584    1.8323656   -4.0965197 
C     1.2086273   -0.1170518   -3.6462355 
O     2.3766702   -0.4382300   -3.5506000 
C     1.1005231   -1.0487551    3.0183166 
H     1.5543756   -1.1408113    2.0303341 
H     1.6450256   -1.7127354    3.6875143 
C     1.1548366    0.4171969    3.4512526 
H     2.1131266    0.8900958    3.2405283 
H     0.9667213    0.4988344    4.5244757 
C    -0.0125150    1.0300114    2.6804814 
H     0.2617893    1.1187930    1.6270098 
H    -0.2969294    2.0211525    3.0321154 
C    -1.1294595   -0.0075605    2.8515097 
H    -1.8549988    0.0160533    2.0401378 
H    -1.6735451    0.1971366    3.7737583 
C    -0.4064231   -1.3741084    2.9551666 
H    -0.6490877   -2.0182645    2.1118069 
H    -0.7215294   -1.9015108    3.8542530 
