18
./S66x8/30.150
C     0.8355202    1.1151643   -1.7279676 
H     1.4843270    1.9806059   -1.7298345 
C     1.3832779   -0.1661499   -1.7256021 
H     2.4571520   -0.2952074   -1.7265949 
C     0.5475576   -1.2813190   -1.7276819 
H     0.9729391   -2.2758072   -1.7295877 
C    -0.8355202   -1.1151643   -1.7279676 
H    -1.4843270   -1.9806059   -1.7298345 
C    -1.3832779    0.1661499   -1.7256021 
H    -2.4571520    0.2952074   -1.7265949 
C    -0.5475576    1.2813190   -1.7276819 
H    -0.9729391    2.2758072   -1.7295877 
C     0.6557807   -0.1167904    3.4587457 
H     1.0472415   -1.1239092    3.4542787 
H     1.3708545    0.6932736    3.4542444 
C    -0.6557807    0.1167904    3.4587457 
H    -1.3708545   -0.6932736    3.4542444 
H    -1.0472415    1.1239092    3.4542787 
