12
./S66x8/60.100
C    -2.4772681    1.1459410    0.0000000 
H    -1.7593273    1.9313056    0.0000000 
C    -3.2529735    0.2132687    0.0000000 
H    -3.9473941   -0.5904238    0.0000000 
C     0.9948147    0.0538704    0.0000000 
O     0.7406280    1.2381391    0.0000000 
O     0.0469160   -0.9062693    0.0000000 
H    -0.8140857   -0.4517299    0.0000000 
C     2.3704536   -0.5414354    0.0000000 
H     3.1088409    0.2511351    0.0000000 
H     2.4946977   -1.1719008    0.8801027 
H     2.4946977   -1.1719008   -0.8801027 
