24
./S66x8/28.105
C     0.7556430    1.4128995   -1.8675699 
H     1.4508871    2.2394999   -1.9097909 
C     1.2300338    0.1134338   -1.7000635 
H     2.2935314   -0.0658865   -1.6196453 
C     0.3333970   -0.9521775   -1.6290746 
H     0.7036273   -1.9610521   -1.5031984 
C    -1.0379356   -0.7188158   -1.7241795 
H    -1.7353351   -1.5436088   -1.6668920 
C    -1.5136345    0.5808579   -1.8897608 
H    -2.5776374    0.7618758   -1.9514696 
C    -0.6158816    1.6451434   -1.9635669 
H    -0.9843480    2.6537969   -2.0951746 
N    -0.3400772    0.8341057    1.5214662 
H    -0.7133845    1.7358672    1.2585732 
C     1.0520695    0.7611188    1.6534795 
O     1.7429798    1.7555425    1.5086455 
C     1.5309696   -0.5729589    1.9715897 
H     2.5880217   -0.7251748    2.1057109 
C     0.6512604   -1.5873401    2.0978063 
H     0.9571879   -2.5957607    2.3343306 
N    -0.6939855   -1.4023081    1.9277141 
H    -1.3427333   -2.1648671    2.0265833 
C    -1.2684338   -0.1775071    1.6282995 
O    -2.4662222   -0.0266838    1.4861873 
