18
./S66x8/55.100
C     1.0530522    1.2472451   -1.1372530 
H     1.7283193    2.0916343   -1.1363207 
C     1.5599208   -0.0513923   -1.0897523 
H     2.6282190   -0.2132102   -1.0515930 
C     0.6886236   -1.1400211   -1.0861203 
H     1.0819649   -2.1465226   -1.0479899 
C    -0.6889026   -0.9306844   -1.1297551 
H    -1.3643533   -1.7751702   -1.1259044 
C    -1.1960431    0.3671198   -1.1734530 
H    -2.2646440    0.5297205   -1.2033064 
C    -0.3254721    1.4563012   -1.1771416 
H    -0.7184586    2.4630769   -1.2066561 
O     0.3396144    0.5217607    2.1826641 
H     0.4257146    0.5716338    1.2254706 
C    -0.5565362   -0.5358534    2.4657192 
H    -0.6522569   -0.5925880    3.5466553 
H    -1.5486858   -0.3641557    2.0419290 
H    -0.1900759   -1.4988945    2.1028076 
