19
./S66x8/11.90
N    -2.3739351   -0.0116343   -0.4025023 
H    -1.6733492   -0.2645961   -1.0912146 
H    -3.2654790   -0.2990920   -0.7840300 
C    -2.1097413   -0.7602965    0.8251917 
H    -2.8613764   -0.5117366    1.5723594 
H    -2.0922504   -1.8482993    0.7112462 
H    -1.1437692   -0.4574976    1.2266422 
C     0.2682493    1.8772040   -0.6276452 
H     0.3928678    2.2883807   -1.6266895 
H     0.7748207    2.5181965    0.0901394 
H    -0.7981624    1.8506744   -0.4092237 
C     0.7802410    0.4594063   -0.6253511 
O     0.3202611   -0.4063301   -1.3645257 
N     1.7667240    0.1863739    0.2669796 
H     2.1664850    0.9413067    0.7923323 
C     2.3551693   -1.1332166    0.3444792 
H     1.5669927   -1.8745467    0.2514586 
H     3.0764291   -1.3052120   -0.4540652 
H     2.8498228   -1.2490848    1.3044187 
