20
./S66x8/52.95
C     0.9164291    0.8930700   -1.6937244 
H     1.6121783    1.7179075   -1.6256958 
C     1.3834058   -0.3951567   -1.9527465 
H     2.4418733   -0.5692325   -2.0887506 
C     0.4864764   -1.4596622   -2.0293205 
H     0.8493100   -2.4594117   -2.2237500 
C    -0.8779781   -1.2356274   -1.8508819 
H    -1.5734113   -2.0616476   -1.9076215 
C    -1.3452384    0.0523893   -1.5914954 
H    -2.4020473    0.2259928   -1.4431771 
C    -0.4480964    1.1177559   -1.5101367 
H    -0.8081064    2.1117455   -1.2869811 
C    -0.1758242    0.5691264    2.1757420 
O    -0.6440138    1.6185730    1.7964816 
O     0.2273884   -0.4084369    1.3364567 
H     0.0586836   -0.0825233    0.4350515 
C     0.0341301    0.1721393    3.6071478 
H    -0.2758360    0.9814759    4.2571367 
H    -0.5419506   -0.7244847    3.8240989 
H     1.0826275   -0.0639928    3.7721664 
