18
./S66x8/30.95
C     0.8355202    1.1151643   -1.0862495 
H     1.4843270    1.9806059   -1.0881167 
C     1.3832779   -0.1661499   -1.0838841 
H     2.4571520   -0.2952074   -1.0848774 
C     0.5475576   -1.2813190   -1.0859635 
H     0.9729391   -2.2758072   -1.0878694 
C    -0.8355202   -1.1151643   -1.0862495 
H    -1.4843270   -1.9806059   -1.0881167 
C    -1.3832779    0.1661499   -1.0838841 
H    -2.4571520    0.2952074   -1.0848774 
C    -0.5475576    1.2813190   -1.0859635 
H    -0.9729391    2.2758072   -1.0878694 
C     0.6557807   -0.1167904    2.1753098 
H     1.0472415   -1.1239092    2.1708426 
H     1.3708545    0.6932736    2.1708081 
C    -0.6557807    0.1167904    2.1753098 
H    -1.3708545   -0.6932736    2.1708081 
H    -1.0472415    1.1239092    2.1708426 
