11
./S66x8/25A
N     0.0000000    0.0000000    1.6144541 
C    -1.1407287    0.0000000    0.9098920 
H    -2.0561705    0.0000000    1.4892012 
C    -1.1936912    0.0000000   -0.4825840 
H    -2.1483081    0.0000000   -0.9887837 
C     0.0000000    0.0000000   -1.1943688 
H     0.0000000    0.0000000   -2.2755365 
C     1.1936912    0.0000000   -0.4825840 
H     2.1483081    0.0000000   -0.9887837 
C     1.1407287    0.0000000    0.9098920 
H     2.0561705    0.0000000    1.4892012 
