24
./S66x8/26.90
N     1.2393325    0.8159970    1.0276159 
H     0.9142438    1.3624734    1.8163466 
C     1.1714141    1.4337794   -0.2276640 
O     0.7829927    2.5873273   -0.3329857 
N     1.8738543   -1.2369587    0.1949192 
H     1.5897169    0.9670923   -2.3190046 
C     1.8881682   -0.7209217   -1.0714064 
H     2.1599484   -1.4148105   -1.8526543 
C     1.5769437    0.5681874   -1.3194962 
H     1.9918856   -2.2252713    0.3498201 
C     1.5083764   -0.5089564    1.3117093 
O     1.4235474   -0.9955668    2.4228000 
N    -1.2393325   -0.8159970    1.0276159 
H    -0.9142438   -1.3624734    1.8163466 
C    -1.1714141   -1.4337794   -0.2276640 
O    -0.7829927   -2.5873273   -0.3329857 
N    -1.8738543    1.2369587    0.1949192 
H    -1.5897169   -0.9670923   -2.3190046 
C    -1.8881682    0.7209217   -1.0714064 
H    -2.1599484    1.4148105   -1.8526543 
C    -1.5769437   -0.5681874   -1.3194962 
H    -1.9918856    2.2252713    0.3498201 
C    -1.5083764    0.5089564    1.3117093 
O    -1.4235474    0.9955668    2.4228000 
