11
./S66x8/49B
N     0.0000000    0.0000000    1.6142233 
C    -1.1407668    0.0000000    0.9105611 
H    -2.0547233    0.0000000    1.4920118 
C    -1.1925917    0.0000000   -0.4809418 
H    -2.1453522    0.0000000   -0.9913185 
C     0.0000000    0.0000000   -1.1968432 
H     0.0000000    0.0000000   -2.2780051 
C     1.1925917    0.0000000   -0.4809418 
H     2.1453522    0.0000000   -0.9913185 
C     1.1407668    0.0000000    0.9105611 
H     2.0547233    0.0000000    1.4920118 
