18
./NCIBLIND10/66
C    -4.5066408   -0.6042055   -0.8569493 
C    -5.8002758   -0.2352484   -0.4887822 
C    -4.4849704    0.5833574    1.0103367 
N    -3.6843150   -0.0726753    0.1137594 
H    -2.6542851   -0.1412166    0.1498301 
H    -4.1186633   -1.1804967   -1.6935754 
H    -6.7322638   -0.4664329   -1.0013721 
H    -4.0846227    1.0950172    1.8828435 
N    -5.7808054    0.5064359    0.6780303 
C     5.4676116   -0.4540626    0.3298836 
C     4.2008572   -0.9564823    0.6055389 
C     3.8923312    0.8982534   -0.4752019 
N     5.2445473    0.7234701   -0.3566197 
H     5.9570110    1.3512322   -0.7112565 
H     6.4662309   -0.8186897    0.5544979 
H     3.9428622   -1.8713200    1.1340091 
H     3.4451026    1.7530799   -0.9766016 
N     3.2302884   -0.1100160    0.1016292 
