23
./S66x8/49.90
C     0.8471850    1.0475755   -1.8924208 
H     1.5085138    1.8928786   -1.7584934 
C     1.3776171   -0.2277985   -2.0807148 
H     2.4492914   -0.3718157   -2.0890234 
C     0.5261759   -1.3173875   -2.2586834 
H     0.9378350   -2.3063695   -2.4069527 
C    -0.8556080   -1.1318065   -2.2454916 
H    -1.5162734   -1.9768012   -2.3835125 
C    -1.3859379    0.1432912   -2.0542622 
H    -2.4576098    0.2870727   -2.0418434 
C    -0.5345054    1.2330791   -1.8791369 
H    -0.9468165    2.2224631   -1.7345094 
N     0.0296986    0.4138056    3.8278126 
C     0.1843824    1.3517672    2.8829357 
H     0.3261532    2.3642932    3.2408374 
C     0.1701731    1.0844774    1.5164362 
H     0.3004132    1.8855032    0.8025508 
C    -0.0141652   -0.2271522    1.0911458 
H    -0.0307317   -0.4702709    0.0377979 
C    -0.1760141   -1.2121866    2.0600049 
H    -0.3225572   -2.2473975    1.7852334 
C    -0.1468117   -0.8448535    3.4030944 
H    -0.2704078   -1.5923674    4.1771954 
