14
./S66x8/10.90
N    -1.3578089    0.1850798   -0.7488892 
H    -0.5292131   -0.3997737   -0.7992312 
H    -2.0196364   -0.2045798   -1.4071261 
C    -1.9178263    0.1055620    0.5984890 
H    -2.8119053    0.7234081    0.6597099 
H    -2.1819130   -0.9016802    0.9359945 
H    -1.1994430    0.5128383    1.3076297 
N     1.4874755   -0.7116287   -0.6140650 
H     1.7837441   -0.4370909   -1.5420502 
H     2.1110251   -1.4593190   -0.3388701 
C     1.6477054    0.4235819    0.2996103 
H     1.3775151    0.1088862    1.3052634 
H     2.6551158    0.8453585    0.3365821 
H     0.9551651    1.2093574    0.0069531 
