24
./S22x5/21_1.0
O    -1.4663319    1.0121689    0.0000000 
C    -0.6281460    1.9142679    0.0000000 
N     0.7205089    1.6882689    0.0000000 
C     1.6367289    2.7052758    0.0000000 
C     1.2769039    4.0061757    0.0000000 
C    -0.1286010    4.3621547    0.0000000 
N    -0.9777229    3.2396428    0.0000000 
O    -0.5972230    5.4864066    0.0000000 
H     2.0103498    4.7938636    0.0000000 
H     1.0232509    0.7061819    0.0000000 
H    -1.9700269    3.4323847    0.0000000 
H     2.6690618    2.3883418    0.0000000 
O     1.4663319   -1.0121689    0.0000000 
C     0.6281460   -1.9142679    0.0000000 
N    -0.7205089   -1.6882689    0.0000000 
C    -1.6367289   -2.7052758    0.0000000 
C    -1.2769039   -4.0061757    0.0000000 
C     0.1286010   -4.3621547    0.0000000 
N     0.9777229   -3.2396428    0.0000000 
O     0.5972230   -5.4864066    0.0000000 
H    -2.0103498   -4.7938636    0.0000000 
H    -1.0232509   -0.7061819    0.0000000 
H     1.9700269   -3.4323847    0.0000000 
H    -2.6690618   -2.3883418    0.0000000 
