23
./S66x8/29.100
N     1.1541531   -0.0708595   -1.4961136 
C     0.5553328   -1.2579843   -1.6723730 
H     1.1948757   -2.1290587   -1.6065318 
C    -0.8079162   -1.4081849   -1.9146588 
H    -1.2270180   -2.3964046   -2.0392079 
C    -1.6044699   -0.2694756   -1.9822916 
H    -2.6676149   -0.3454900   -2.1645805 
C    -1.0002246    0.9711008   -1.8060016 
H    -1.5754165    1.8849650   -1.8374688 
C     0.3711164    1.0165733   -1.5684759 
H     0.8680923    1.9685164   -1.4282767 
N    -0.7714369   -0.3844394    1.4530111 
H    -1.6663259   -0.8163029    1.2684076 
C    -0.7711820    1.0133704    1.5460221 
O    -1.8110651    1.6415702    1.4311720 
C     0.5483128    1.5724518    1.7735852 
H     0.6496291    2.6396739    1.8694534 
C     1.6181864    0.7537595    1.8451052 
H     2.6220654    1.1224242    1.9935318 
N     1.5001252   -0.6035338    1.7325506 
H     2.3135612   -1.1957212    1.7243829 
C     0.2996783   -1.2507662    1.5061689 
O     0.2075410   -2.4561843    1.3725896 
