22
./S66x8/48.150
N     1.6448071   -0.0017940   -2.5251394 
C     0.9733304   -1.1404101   -2.7475219 
H     1.5224628   -2.0569461   -2.5706503 
C    -0.3506369   -1.1861298   -3.1776662 
H    -0.8351493   -2.1387395   -3.3378590 
C    -1.0251524    0.0117159   -3.3921791 
H    -2.0533122    0.0169874   -3.7266161 
C    -0.3425136    1.2026726   -3.1653211 
H    -0.8205820    2.1601396   -3.3156026 
C     0.9809401    1.1435605   -2.7354632 
H     1.5361471    2.0544924   -2.5488848 
N     0.3816915    0.0021406    4.5581980 
C     1.2523595   -0.0034722    3.5387850 
H     2.3002161   -0.0022236    3.8130878 
C     0.8789738   -0.0105399    2.1969569 
H     1.6264344   -0.0147039    1.4158573 
C    -0.4770748   -0.0119540    1.8845415 
H    -0.8068035   -0.0174095    0.8542600 
C    -1.3951780   -0.0062389    2.9297111 
H    -2.4596281   -0.0070883    2.7409753 
C    -0.9195742    0.0006788    4.2386699 
H    -1.6117579    0.0052619    5.0718611 
