24
./S66x8/17.150
N    -1.9323631    1.1850738    0.0000000 
H    -0.9039414    1.2363106    0.0000000 
C    -2.4991885   -0.0781207    0.0000000 
O    -1.7964628   -1.0912114    0.0000000 
C    -3.9459863   -0.1000256    0.0000000 
H    -4.4519544   -1.0495290    0.0000000 
C    -4.6243839    1.0663969    0.0000000 
H    -5.7032610    1.1130901    0.0000000 
N    -3.9772008    2.2677151    0.0000000 
H    -4.4862020    3.1361835    0.0000000 
C    -2.5938426    2.3993259    0.0000000 
O    -2.0422077    3.4793414    0.0000000 
N     3.8373368    0.0299176    0.0000000 
H     4.2845806    0.9364908    0.0000000 
C     4.6933846   -1.0847001    0.0000000 
O     5.9028366   -0.9329957    0.0000000 
C     3.9791662   -2.3468737    0.0000000 
H     4.5457507   -3.2619044    0.0000000 
C     2.6289972   -2.3506916    0.0000000 
H     2.0520340   -3.2636563    0.0000000 
N     1.8910058   -1.1998107    0.0000000 
H     0.8646695   -1.2212535    0.0000000 
C     2.4637767    0.0448543    0.0000000 
O     1.8134558    1.0860726    0.0000000 
