23
./S66x8/49.100
C     0.8491228    1.0788182   -2.0461372 
H     1.5104516    1.9241213   -1.9122097 
C     1.3795549   -0.1965558   -2.2344312 
H     2.4512293   -0.3405730   -2.2427398 
C     0.5281137   -1.2861448   -2.4123998 
H     0.9397728   -2.2751269   -2.5606690 
C    -0.8536701   -1.1005639   -2.3992080 
H    -1.5143356   -1.9455585   -2.5372288 
C    -1.3840001    0.1745339   -2.2079786 
H    -2.4556719    0.3183154   -2.1955598 
C    -0.5325676    1.2643218   -2.0328533 
H    -0.9448787    2.2537058   -1.8882257 
N     0.0275846    0.3797227    3.9955031 
C     0.1822684    1.3176843    3.0506263 
H     0.3240392    2.3302103    3.4085280 
C     0.1680591    1.0503945    1.6841268 
H     0.2982992    1.8514203    0.9702414 
C    -0.0162792   -0.2612352    1.2588364 
H    -0.0328456   -0.5043538    0.2054885 
C    -0.1781281   -1.2462695    2.2276955 
H    -0.3246711   -2.2814805    1.9529240 
C    -0.1489256   -0.8789364    3.5707850 
H    -0.2725218   -1.6264504    4.3448860 
