22
./S66x8/58.110
N    -1.9140619    0.8656061    0.0000000 
C    -1.8956056   -0.4770209    0.0000000 
H    -0.9156115   -0.9404498    0.0000000 
C    -3.0493669   -1.2575955    0.0000000 
H    -2.9693766   -2.3353408    0.0000000 
C    -4.2891585   -0.6276196    0.0000000 
H    -5.2044185   -1.2033031    0.0000000 
C    -4.3217412    0.7629570    0.0000000 
H    -5.2582884    1.3022785    0.0000000 
C    -3.1159524    1.4584818    0.0000000 
H    -3.1109486    2.5416645    0.0000000 
N     1.9140619   -0.8656061    0.0000000 
C     3.1159524   -1.4584818    0.0000000 
H     3.1109486   -2.5416645    0.0000000 
C     4.3217412   -0.7629570    0.0000000 
H     5.2582884   -1.3022785    0.0000000 
C     4.2891585    0.6276196    0.0000000 
H     5.2044185    1.2033031    0.0000000 
C     3.0493669    1.2575955    0.0000000 
H     2.9693766    2.3353408    0.0000000 
C     1.8956056    0.4770209    0.0000000 
H     0.9156115    0.9404498    0.0000000 
