18
./S66x8/66.95
N    -2.4982514   -0.1307458   -0.5163629 
H    -1.9016388   -0.9464401   -0.4376612 
H    -3.4268616   -0.4350305   -0.2542244 
C    -2.0359915    0.8820684    0.4310910 
H    -2.6773451    1.7590918    0.3646124 
H    -2.0079504    0.5635009    1.4781467 
H    -1.0307615    1.1962818    0.1546314 
N     0.2863922   -1.3968920   -0.2841109 
C     0.6248285   -0.5845480   -1.2958233 
H     0.0821613   -0.7290859   -2.2212047 
C     1.5961578    0.4075858   -1.1954563 
H     1.8210102    1.0319261   -2.0483070 
C     2.2569978    0.5771273    0.0168081 
H     3.0148518    1.3393646    0.1331922 
C     1.9168649   -0.2578353    1.0759311 
H     2.3994533   -0.1673730    2.0386317 
C     0.9330834   -1.2226243    0.8767477 
H     0.6469990   -1.8863719    1.6833583 
