10
./S66x8/03.100
O    -2.5102880   -0.7792142   -0.0057337 
H    -2.8689446    0.1084683    0.0265986 
H    -1.5487805   -0.6416193    0.0103945 
N     0.4615961   -0.5622970    0.0199861 
H     0.7569605   -1.1149350   -0.7748048 
H     0.7716766   -1.0730181    0.8368456 
C     1.1209313    0.7460670   -0.0202555 
H     0.8103889    1.3277919    0.8442599 
H     2.2122406    0.7067720   -0.0292112 
H     0.7942191    1.2819844   -0.9080794 
