9
./S66x8/08.95
O    -0.9000741    0.6608592    0.0000000 
H     0.0641946    0.6283851    0.0000000 
C    -1.3615031   -0.6746184    0.0000000 
H    -2.4477898   -0.6432271    0.0000000 
H    -1.0400089   -1.2284629   -0.8849862 
H    -1.0400089   -1.2284629    0.8849862 
O     1.9492302    0.5665115    0.0000000 
H     2.3879800    0.9595077   -0.7573086 
H     2.3879800    0.9595077    0.7573086 
