28
./NCIBLIND10/85
C    -0.2176724   -1.9850383   -3.0543650 
C     1.1904748   -1.9851583   -3.0302245 
C     1.8946883   -0.7656548   -3.0546050 
C     1.2023350    0.4582188   -3.0905057 
C    -0.2010621    0.4253982   -3.0992759 
C    -0.9312762   -0.7732049   -3.0896457 
H    -0.7641430   -2.9318566   -3.0365547 
H     1.7367453   -2.9315066   -2.9886737 
H     2.9878994   -0.7657548   -3.0440348 
H     1.7228550    1.4170573   -3.1122061 
H    -2.0219172   -0.7446844   -3.1008459 
N    -0.9381963    1.7020528   -3.0951358 
O    -0.2768736    2.7514731   -3.0756354 
O    -2.1778402    1.6544019   -3.0998459 
C    -1.2023350   -0.4582188    3.0905057 
C     0.2010621   -0.4253982    3.0992759 
C     0.9312762    0.7732049    3.0896457 
C     0.2176724    1.9850383    3.0543650 
C    -1.1904748    1.9851583    3.0302245 
C    -1.8946883    0.7656548    3.0546050 
H    -1.7228550   -1.4170573    3.1122061 
H     2.0219172    0.7446844    3.1008459 
H     0.7641430    2.9318566    3.0365547 
H    -1.7367453    2.9315066    2.9886737 
H    -2.9878994    0.7657548    3.0440348 
N     0.9381963   -1.7020528    3.0951358 
O     0.2768736   -2.7514731    3.0756354 
O     2.1778402   -1.6544019    3.0998459 
