18
./S66x8/66.150
N    -3.2723448    0.0286175   -0.5706867 
H    -2.6757322   -0.7870768   -0.4919850 
H    -4.2009550   -0.2756672   -0.3085483 
C    -2.8100848    1.0414317    0.3767672 
H    -3.4514385    1.9184551    0.3102886 
H    -2.7820437    0.7228642    1.4238229 
H    -1.8048548    1.3556451    0.1003075 
N     0.7789971   -1.4983050   -0.2495411 
C     1.1174334   -0.6859610   -1.2612536 
H     0.5747662   -0.8304990   -2.1866350 
C     2.0887626    0.3061728   -1.1608866 
H     2.3136151    0.9305131   -2.0137373 
C     2.7496027    0.4757143    0.0513778 
H     3.5074566    1.2379516    0.1677620 
C     2.4094698   -0.3592483    1.1105008 
H     2.8920582   -0.2687860    2.0732014 
C     1.4256882   -1.3240373    0.9113174 
H     1.1396039   -1.9877849    1.7179281 
