10
./S66x8/12.100
N    -0.4831184   -0.6218280   -0.4061503 
H    -0.5788058   -1.5906591   -0.1302974 
H    -1.0722581   -0.5083940   -1.2209102 
C    -0.9665639    0.2462516    0.6742274 
H    -0.8624141    1.2833172    0.3663751 
H    -2.0043917    0.0728476    0.9653575 
H    -0.3346778    0.1065664    1.5474681 
O     2.1792820    0.5888896   -0.3023904 
H     1.3617646    0.0926171   -0.4755433 
H     2.7611834    0.3303917   -1.0181365 
