20
./S66x8/22.100
C    -2.6555714   -0.4840006   -0.0636633 
O    -2.0090279    0.5383671    0.1227071 
O    -2.1200346   -1.6741002   -0.2892129 
H    -1.1286249   -1.6077641   -0.2833432 
C    -4.1533699   -0.5248311   -0.0614690 
H    -4.5485940    0.4658647    0.1269595 
H    -4.5062015   -0.8957620   -1.0208316 
H    -4.4950595   -1.2192225    0.7024101 
N     2.6550279   -0.7228585   -0.1559800 
H     3.0482330   -1.6382488   -0.3276994 
C     3.5765558    0.3252571    0.0254731 
O     4.7737022    0.1069613   -0.0274068 
C     2.9374897    1.6047195    0.2660803 
H     3.5570245    2.4716443    0.4175575 
C     1.5904055    1.6847096    0.2954615 
H     1.0675653    2.6131566    0.4707597 
N     0.7866748    0.5940276    0.1050555 
H    -0.2373771    0.6639753    0.1288457 
C     1.2866073   -0.6561952   -0.1291167 
O     0.5745748   -1.6457000   -0.3025869 
