22
./S66x8/48.200
N     1.8366022    0.0020090   -3.1742812 
C     1.1651255   -1.1366071   -3.3966637 
H     1.7142579   -2.0531431   -3.2197921 
C    -0.1588418   -1.1823268   -3.8268080 
H    -0.6433541   -2.1349365   -3.9870009 
C    -0.8333572    0.0155189   -4.0413209 
H    -1.8615170    0.0207904   -4.3757580 
C    -0.1507184    1.2064756   -3.8144630 
H    -0.6287868    2.1639426   -3.9647444 
C     1.1727353    1.1473635   -3.3846051 
H     1.7279422    2.0582954   -3.1980266 
N     0.1898963   -0.0016624    5.2073399 
C     1.0605644   -0.0072752    4.1879268 
H     2.1084209   -0.0060266    4.4622296 
C     0.6871786   -0.0143429    2.8460987 
H     1.4346393   -0.0185069    2.0649991 
C    -0.6688699   -0.0157570    2.5336833 
H    -0.9985986   -0.0212125    1.5034018 
C    -1.5869732   -0.0100419    3.5788529 
H    -2.6514232   -0.0108913    3.3901171 
C    -1.1113694   -0.0031242    4.8878117 
H    -1.8035531    0.0014589    5.7210029 
