20
./S66x8/22.125
C    -2.9113443   -0.4904539   -0.0626987 
O    -2.2648008    0.5319138    0.1236717 
O    -2.3758076   -1.6805535   -0.2882483 
H    -1.3843978   -1.6142174   -0.2823786 
C    -4.4091429   -0.5312844   -0.0605044 
H    -4.8043669    0.4594114    0.1279241 
H    -4.7619744   -0.9022153   -1.0198670 
H    -4.7508324   -1.2256758    0.7033747 
N     2.8255432   -0.7185563   -0.1566231 
H     3.2187483   -1.6339466   -0.3283425 
C     3.7470711    0.3295593    0.0248300 
O     4.9442175    0.1112635   -0.0280499 
C     3.1080050    1.6090217    0.2654372 
H     3.7275398    2.4759465    0.4169145 
C     1.7609208    1.6890118    0.2948184 
H     1.2380806    2.6174588    0.4701166 
N     0.9571901    0.5983298    0.1044124 
H    -0.0668618    0.6682775    0.1282027 
C     1.4571225   -0.6518930   -0.1297598 
O     0.7450901   -1.6413978   -0.3032300 
