13
./S66x8/06.110
O    -1.8480887    0.9920157   -0.0041923 
H    -0.8755449    1.0178955   -0.0092391 
C    -2.2178392   -0.3677304   -0.0089642 
H    -3.3040921   -0.4170104   -0.0047130 
H    -1.8645744   -0.8984663   -0.8983219 
H    -1.8572483   -0.9066355    0.8725013 
N     1.2874739    0.8970629   -0.0144663 
H     1.6580935    1.4048395    0.7786661 
H     1.6582168    1.3614015   -0.8337251 
C     1.7652259   -0.4889705    0.0229949 
H     1.3733410   -1.0229958   -0.8391968 
H     2.8519370   -0.5957057    0.0260294 
H     1.3730995   -0.9757007    0.9126271 
