20
./S66x8/52.150
C     0.8745799    0.9773964   -2.2602574 
H     1.5703291    1.8022339   -2.1922288 
C     1.3415566   -0.3108304   -2.5192795 
H     2.4000240   -0.4849061   -2.6552837 
C     0.4446272   -1.3753358   -2.5958535 
H     0.8074608   -2.3750853   -2.7902830 
C    -0.9198273   -1.1513010   -2.4174149 
H    -1.6152605   -1.9773213   -2.4741545 
C    -1.3870877    0.1367157   -2.1580284 
H    -2.4438966    0.3103192   -2.0097101 
C    -0.4899456    1.2020823   -2.0766697 
H    -0.8499556    2.1960719   -1.8535141 
C    -0.1130503    0.4426368    3.0255415 
O    -0.5812399    1.4920835    2.6462811 
O     0.2901622   -0.5349264    2.1862562 
H     0.1214574   -0.2090129    1.2848510 
C     0.0969040    0.0456497    4.4569473 
H    -0.2130622    0.8549863    5.1069362 
H    -0.4791768   -0.8509742    4.6738984 
H     1.1454014   -0.1904823    4.6219659 
