34
./S66x8/34.105
C     1.6425618    1.1473903   -2.5333704 
H     2.7286407    1.2345817   -2.5637295 
H     1.3944974    0.0866429   -2.5670307 
H     1.2443032    1.6114825   -3.4344728 
C     1.0855465    1.7939203   -1.2719256 
H    -0.0050181    1.7254723   -1.2710259 
H     1.3255176    2.8597400   -1.2666823 
C     1.6266637    1.1549284    0.0000000 
H     1.3836374    0.0881894    0.0000000 
H     2.7188567    1.2202574    0.0000000 
C     1.0855465    1.7939203    1.2719256 
H    -0.0050181    1.7254723    1.2710259 
H     1.3255176    2.8597400    1.2666823 
C     1.6425618    1.1473903    2.5333704 
H     2.7286407    1.2345817    2.5637295 
H     1.2443032    1.6114825    3.4344728 
H     1.3944974    0.0866429    2.5670307 
C    -1.6425618   -1.1473903    2.5333704 
H    -1.3944974   -0.0866429    2.5670307 
H    -2.7286407   -1.2345817    2.5637295 
H    -1.2443032   -1.6114825    3.4344728 
C    -1.0855465   -1.7939203    1.2719256 
H    -1.3255176   -2.8597400    1.2666823 
H     0.0050181   -1.7254723    1.2710259 
C    -1.6266637   -1.1549284    0.0000000 
H    -2.7188567   -1.2202574    0.0000000 
H    -1.3836374   -0.0881894    0.0000000 
C    -1.0855465   -1.7939203   -1.2719256 
H    -1.3255176   -2.8597400   -1.2666823 
H     0.0050181   -1.7254723   -1.2710259 
C    -1.6425618   -1.1473903   -2.5333704 
H    -1.3944974   -0.0866429   -2.5670307 
H    -1.2443032   -1.6114825   -3.4344728 
H    -2.7286407   -1.2345817   -2.5637295 
