19
./S66x8/14.110
C    -1.1072406   -0.0806654    1.9454903 
H    -0.1039226    0.3317023    1.8685861 
H    -1.0511472   -1.1044365    2.3096872 
H    -1.6805748    0.4934722    2.6687862 
C    -1.8491698   -0.0739724    0.6274276 
O    -3.0295024   -0.4009305    0.5446994 
N    -1.1206208    0.3130148   -0.4443080 
H    -0.1345556    0.5283632   -0.3419728 
C    -1.7264656    0.3265728   -1.7562153 
H    -2.6435952    0.9115465   -1.7446073 
H    -1.0274714    0.7699166   -2.4602636 
H    -1.9816495   -0.6788737   -2.0903324 
N     2.1329136    0.6491214   -0.2536838 
H     2.5365799    1.1890409    0.5015163 
H     2.5509175    1.0165026   -1.0993297 
C     2.5052164   -0.7620614   -0.0999310 
H     2.0789290   -1.3330940   -0.9213065 
H     3.5806151   -0.9487509   -0.0741476 
H     2.0707439   -1.1464684    0.8199050 
