21
./S66x8/53.150
C     0.9448100    0.7938904   -1.8217110 
H     1.6030747    1.3380375   -1.1586994 
C     1.4321464   -0.2400207   -2.6203078 
H     2.4821331   -0.4979868   -2.5895022 
C     0.5670558   -0.9413432   -3.4592810 
H     0.9453332   -1.7435496   -4.0782895 
C    -0.7855806   -0.6071982   -3.5019170 
H    -1.4561565   -1.1503422   -4.1538814 
C    -1.2731481    0.4283440   -2.7056188 
H    -2.3223218    0.6888252   -2.7406864 
C    -0.4091948    1.1285149   -1.8644732 
H    -0.7768617    1.9256978   -1.2334283 
C    -0.0340872    0.2821537    3.0914369 
O     0.2124021    1.3255800    2.5041976 
N    -0.3381345   -0.8728528    2.4402696 
H    -0.3129342   -0.8798681    1.4336330 
H    -0.4939110   -1.7283451    2.9359713 
C    -0.0112425    0.1872619    4.5998544 
H     1.0204713    0.2714742    4.9349282 
H    -0.4331465   -0.7393811    4.9808801 
H    -0.5607072    1.0311082    5.0066249 
