27
./S66x8/42.125
N     0.1865813   -1.0010834   -2.2747008 
H     0.4412493   -1.9531471   -2.0487792 
C    -1.1881975   -0.7300786   -2.3390637 
O    -2.0027945   -1.6126594   -2.1316465 
C    -1.4858630    0.6547615   -2.6609877 
H    -2.5155042    0.9592564   -2.7346525 
C    -0.4772611    1.5265683   -2.8636564 
H    -0.6475835    2.5652488   -3.1047113 
N     0.8364803    1.1495970   -2.7717167 
H     1.5805443    1.8124851   -2.9125874 
C     1.2451132   -0.1369323   -2.4623032 
O     2.4131561   -0.4581106   -2.3666677 
C     1.0713344   -1.0328507    2.0711708 
H     1.5251869   -1.1249069    1.0831882 
H     1.6158369   -1.6968309    2.7403685 
C     1.1256479    0.4331013    2.5041068 
H     2.0839379    0.9060003    2.2933825 
H     0.9375326    0.5147389    3.5773299 
C    -0.0417037    1.0459158    1.7333356 
H     0.2326006    1.1346974    0.6798639 
H    -0.3261181    2.0370569    2.0849696 
C    -1.1586482    0.0083439    1.9043639 
H    -1.8841875    0.0319578    1.0929920 
H    -1.7027338    0.2130411    2.8266125 
C    -0.4356119   -1.3582039    2.0080208 
H    -0.6782764   -2.0023601    1.1646611 
H    -0.7507181   -1.8856063    2.9071072 
