12
./S22x5/06_2.0
C     0.0000000   -0.4719250    0.4719250 
C     0.0000000    0.4719250   -0.4719250 
H     0.9229859   -0.8724219    0.8724219 
H     0.9229859    0.8724219   -0.8724219 
H    -0.9241969   -0.8704639    0.8704639 
H    -0.9241969    0.8704639   -0.8704639 
C     7.4364434    0.4719250    0.4719250 
C     7.4364434   -0.4719250   -0.4719250 
H     6.5134575    0.8724219    0.8724219 
H     6.5134575   -0.8724219   -0.8724219 
H     8.3606404    0.8704639    0.8704639 
H     8.3606404   -0.8704639   -0.8704639 
