25
./S66x8/61.110
C    -2.4240257   -0.1222605   -0.9249974 
H    -2.6393985   -0.7151122   -1.8138976 
H    -2.3750045   -0.8056319   -0.0775079 
H    -3.2607064    0.5577579   -0.7689312 
C    -1.1103788    0.6320924   -1.0869321 
H    -0.9373799    1.2632463   -0.2116286 
H    -1.1748576    1.3082597   -1.9427897 
C     0.0778215   -0.3018958   -1.2763455 
H     0.1607637   -0.9623246   -0.4082934 
H    -0.1095301   -0.9531843   -2.1351211 
C     1.3943210    0.4339890   -1.4873318 
H     1.5629579    1.1205862   -0.6538847 
H     1.3174140    1.0565578   -2.3816249 
C     2.5788956   -0.5140464   -1.6188720 
H     2.4400609   -1.1903994   -2.4620886 
H     3.5128203    0.0245076   -1.7722999 
H     2.6865134   -1.1245955   -0.7222562 
C    -0.6937208   -0.2909968    2.6797452 
O    -1.1163347   -1.4061770    2.4825986 
O    -1.5074131    0.7679687    2.9123347 
H    -2.4081752    0.4135882    2.8717990 
C     0.7465463    0.1186693    2.6969506 
H     1.3723694   -0.7515117    2.5387954 
H     0.9225837    0.8529429    1.9138260 
H     0.9838576    0.5879702    3.6487530 
