20
./S22x5/17_1.2
C     0.3956530    1.0594321   -0.6961389 
C     0.3956530    1.0594321    0.6961389 
N    -0.0032634    0.0002274    1.4144799 
C    -0.3918473   -1.0596972    0.6967289 
C    -0.3918473   -1.0596972   -0.6967289 
N    -0.0032634    0.0002274   -1.4144799 
H     0.7189833    1.9333701   -1.2472799 
H     0.7189833    1.9333701    1.2472799 
H    -0.7131522   -1.9343626    1.2475599 
H    -0.7131522   -1.9343626   -1.2475599 
C     4.4423671    0.6431320    1.1300449 
C     3.9066222   -0.6426894    1.1306309 
N     3.6336012   -1.3067387    0.0000000 
C     3.9066222   -0.6426894   -1.1306309 
C     4.4423671    0.6431320   -1.1300449 
N     4.7198520    1.3059798    0.0000000 
H     4.6533253    1.1524711    2.0618638 
H     3.6868867   -1.1477443    2.0623988 
H     3.6868867   -1.1477443   -2.0623988 
H     4.6533253    1.1524711   -2.0618638 
