28
./NCIBLIND10/54
C     3.6814192    0.0807598   -0.1477089 
C     4.8880425   -0.3227180    0.4971735 
N     2.6485393   -0.8327879   -0.4719752 
N     3.4398846    1.4616264   -0.4766553 
O     1.8073231   -0.5046815   -1.3335018 
O     2.6314890   -1.9591296    0.0823055 
O     4.4282536    2.1739002   -0.7636208 
O     2.2813622    1.8975948   -0.4213342 
N     5.0165550   -1.5496117    1.0378339 
H     5.9308426   -1.8798080    1.3183594 
H     4.2202096   -2.1791738    0.9707127 
N     5.9407928    0.5155582    0.5927654 
H     6.6861972    0.3116142    1.2455080 
H     5.8726115    1.4230957    0.1406466 
C    -4.8954562    0.1666414    0.0048140 
C    -3.5202697    0.0198186   -0.3543029 
N    -5.7810033   -0.9561102    0.0664052 
N    -5.4654772    1.4349559    0.3325103 
O    -6.7457219   -0.9184895    0.8431502 
O    -5.5143882   -1.9596396   -0.6437385 
O    -4.6957824    2.3446134    0.7391982 
O    -6.6810907    1.6094893    0.1651971 
N    -3.0451305   -1.1505140   -0.8249420 
H    -2.0586415   -1.2333756   -1.0506463 
H    -3.7240536   -1.8766480   -1.0322560 
N    -2.6546830    1.0438884   -0.2238104 
H    -1.6871343    0.9509866   -0.5137960 
H    -3.0046898    1.8881446    0.2217082 
