32
./S66x8/37.100
C     0.7978199   -1.0235995   -2.7415246 
H     0.8514617   -1.1235989   -3.8272759 
H     1.4893079   -1.7457172   -2.3095411 
C     1.1147928    0.4234049   -2.3295995 
H     1.8360481    0.8885972   -2.9988090 
H     1.5534754    0.4382768   -1.3321780 
C    -0.2466533    1.1641417   -2.3262844 
H    -0.2601718    1.9993153   -3.0239382 
H    -0.4508987    1.5754480   -1.3382771 
C    -1.3008084    0.1022641   -2.6899526 
H    -1.4756550    0.1036955   -3.7672670 
H    -2.2588285    0.2764933   -2.2021031 
C    -0.6489741   -1.2216162   -2.2929549 
H    -1.1265334   -2.0891749   -2.7462683 
H    -0.6881128   -1.3468312   -1.2090415 
C     0.0476567    0.0924742    2.1827474 
C    -0.0486875   -0.0596118    3.6983879 
H     0.9438588   -0.0750780    4.1507451 
H    -0.6076123    0.7682727    4.1368228 
H    -0.5558522   -0.9882779    3.9637375 
C     0.7617099    1.3993793    1.8471225 
H     0.8432295    1.5328784    0.7674407 
H     0.2182375    2.2540677    2.2526239 
H     1.7693145    1.4100297    2.2653555 
C    -1.3573551    0.1122988    1.5854279 
H    -1.3204236    0.2294888    0.5015789 
H    -1.9396547    0.9397224    1.9937738 
H    -1.8872582   -0.8154880    1.8067572 
C     0.8355565   -1.0810107    1.6054093 
H     0.3403362   -2.0280014    1.8256524 
H     0.9303997   -0.9938279    0.5222745 
H     1.8402746   -1.1184153    2.0291577 
