34
./S66x8/34.95
C     1.5382049    1.0447627   -2.5333669 
H     2.6242838    1.1319542   -2.5637260 
H     1.2901406   -0.0159846   -2.5670273 
H     1.1399463    1.5088549   -3.4344693 
C     0.9811896    1.6912927   -1.2719221 
H    -0.1093750    1.6228447   -1.2710224 
H     1.2211607    2.7571124   -1.2666789 
C     1.5223069    1.0523008    0.0000000 
H     1.2792806   -0.0144382    0.0000000 
H     2.6144998    1.1176298    0.0000000 
C     0.9811896    1.6912927    1.2719221 
H    -0.1093750    1.6228447    1.2710224 
H     1.2211607    2.7571124    1.2666789 
C     1.5382049    1.0447627    2.5333669 
H     2.6242838    1.1319542    2.5637260 
H     1.1399463    1.5088549    3.4344693 
H     1.2901406   -0.0159846    2.5670273 
C    -1.5382049   -1.0447627    2.5333669 
H    -1.2901406    0.0159846    2.5670273 
H    -2.6242838   -1.1319542    2.5637260 
H    -1.1399463   -1.5088549    3.4344693 
C    -0.9811896   -1.6912927    1.2719221 
H    -1.2211607   -2.7571124    1.2666789 
H     0.1093750   -1.6228447    1.2710224 
C    -1.5223069   -1.0523008    0.0000000 
H    -2.6144998   -1.1176298    0.0000000 
H    -1.2792806    0.0144382    0.0000000 
C    -0.9811896   -1.6912927   -1.2719221 
H    -1.2211607   -2.7571124   -1.2666789 
H     0.1093750   -1.6228447   -1.2710224 
C    -1.5382049   -1.0447627   -2.5333669 
H    -1.2901406    0.0159846   -2.5670273 
H    -1.1399463   -1.5088549   -3.4344693 
H    -2.6242838   -1.1319542   -2.5637260 
