17
./S22x5/12_2.0
C     0.0000110    0.0362911   -1.3932179 
C    -0.0000111   -1.1884018   -0.7280359 
C     0.0000109   -1.2247077    0.6651800 
C    -0.0000110   -0.0362967    1.3932039 
C     0.0000111    1.1884161    0.7280379 
C    -0.0000109    1.2246990   -0.6651680 
H     0.0015670    0.0644480   -2.4742738 
H     0.0015509   -2.1105408   -1.2929588 
H     0.0015669   -2.1750076    1.1813230 
H     0.0015510   -0.0644647    2.4742608 
H     0.0015671    2.1105601    1.2929508 
H     0.0015511    2.1750059   -1.1813030 
C     6.3458705   -0.0000001    0.0000000 
H     6.7096285    0.8381738   -0.5868780 
H     6.7096285    0.0891640    1.0193189 
H     5.2599216    0.0000000    0.0000000 
H     6.7096284   -0.9273380   -0.4324409 
