21
./S66x8/23.90
C    -2.4299371   -0.4349815   -0.0719420 
O    -1.7684868    0.5953953    0.0952988 
N    -1.8677906   -1.6427317   -0.2445994 
H    -0.8533631   -1.7371806   -0.2386446 
H    -2.4414238   -2.4529441   -0.3770007 
C    -3.9354550   -0.3798628   -0.0862045 
H    -4.2751854   -0.0000153    0.8741836 
H    -4.3993251   -1.3437550   -0.2765291 
H    -4.2471976    0.3288700   -0.8489153 
N     2.8299319   -0.5317212   -0.0519763 
H     3.3199614   -1.4076784   -0.1699148 
C     3.6335580    0.6111238    0.0985054 
O     4.8491200    0.5155014    0.0833206 
C     2.8609658    1.8264402    0.2616494 
H     3.3827288    2.7596331    0.3846845 
C     1.5118051    1.7647647    0.2559726 
H     0.8914010    2.6411251    0.3736495 
N     0.8267230    0.5924832    0.1014068 
H    -0.2060675    0.5834221    0.1005695 
C     1.4576129   -0.6119863   -0.0608532 
O     0.8604242   -1.6759023   -0.2026607 
