26
./S66x8/62.105
C    -2.4972932   -0.1457017   -1.4370483 
H    -2.5199063   -0.6989621   -2.3761260 
H    -2.5692613   -0.8744826   -0.6287925 
H    -3.3855522    0.4830285   -1.3975453 
C    -1.2190770    0.6747982   -1.3214440 
H    -1.2267678    1.2606658   -0.4001655 
H    -1.1718939    1.3929777   -2.1432827 
C     0.0336532   -0.1908564   -1.3480664 
H     0.0043076   -0.8959549   -0.5106312 
H     0.0366736   -0.7994394   -2.2579805 
C     1.3220789    0.6174695   -1.2744741 
H     1.3037662    1.2309658   -0.3719135 
H     1.3567802    1.3087805   -2.1196122 
C     2.5630581   -0.2657405   -1.2872851 
H     2.6112017   -0.8578595   -2.2014035 
H     3.4782172    0.3214937   -1.2225979 
H     2.5497799   -0.9619603   -0.4478884 
C     0.1368206    0.3875764    2.4063866 
O     0.1637329    1.5726498    2.1145454 
N     1.2694009   -0.3643013    2.5092066 
H     2.1403411    0.0582792    2.2405443 
H     1.2304629   -1.3561880    2.6406295 
C    -1.1534004   -0.3513611    2.6708405 
H    -1.0061504   -1.3120825    3.1579648 
H    -1.6596279   -0.5096701    1.7200271 
H    -1.7913443    0.2758753    3.2861123 
