28
./NCIBLIND10/81
C    -0.2176724   -1.9850383   -1.4043332 
C     1.1904748   -1.9851583   -1.3801927 
C     1.8946883   -0.7656548   -1.4045732 
C     1.2023350    0.4582188   -1.4404739 
C    -0.2010621    0.4253982   -1.4492440 
C    -0.9312762   -0.7732049   -1.4396138 
H    -0.7641430   -2.9318566   -1.3865228 
H     1.7367453   -2.9315066   -1.3386419 
H     2.9878994   -0.7657548   -1.3940030 
H     1.7228550    1.4170573   -1.4621743 
H    -2.0219172   -0.7446844   -1.4508141 
N    -0.9381963    1.7020528   -1.4451039 
O    -0.2768736    2.7514731   -1.4256036 
O    -2.1778402    1.6544019   -1.4498140 
C    -1.2023350   -0.4582188    1.4404739 
C     0.2010621   -0.4253982    1.4492440 
C     0.9312762    0.7732049    1.4396138 
C     0.2176724    1.9850383    1.4043332 
C    -1.1904748    1.9851583    1.3801927 
C    -1.8946883    0.7656548    1.4045732 
H    -1.7228550   -1.4170573    1.4621743 
H     2.0219172    0.7446844    1.4508141 
H     0.7641430    2.9318566    1.3865228 
H    -1.7367453    2.9315066    1.3386419 
H    -2.9878994    0.7657548    1.3940030 
N     0.9381963   -1.7020528    1.4451039 
O     0.2768736   -2.7514731    1.4256036 
O     2.1778402   -1.6544019    1.4498140 
