24
./S22x5/14_1.2
C     0.6290515   -1.2440584    0.0000000 
C     0.3140723   -0.6221346    1.2062049 
C     0.3140723   -0.6221346   -1.2062049 
C    -0.3148135    0.6216992    1.2069539 
C    -0.6275689    1.2449292    0.0000000 
C    -0.3148135    0.6216992   -1.2069539 
H     0.5639305   -1.1027781   -2.1423148 
H    -0.5593888    1.1040857   -2.1437978 
H    -1.1168940    2.2096858    0.0000000 
H    -0.5593888    1.1040857    2.1437978 
H     0.5639305   -1.1027781    2.1423148 
H     1.1297216   -2.2024625    0.0000000 
C     3.8892158    1.2440584    0.0000000 
C     4.2041950    0.6221346   -1.2062049 
C     4.2041950    0.6221346    1.2062049 
C     4.8330808   -0.6216992   -1.2069539 
C     5.1458362   -1.2449292    0.0000000 
C     4.8330808   -0.6216992    1.2069539 
H     3.3885457    2.2024625    0.0000000 
H     3.9543368    1.1027781    2.1423148 
H     5.0776561   -1.1040857    2.1437978 
H     5.6351613   -2.2096858    0.0000000 
H     5.0776561   -1.1040857   -2.1437978 
H     3.9543368    1.1027781   -2.1423148 
