12
./S66x8/17B
N     0.5909207    1.1602968    0.0000000 
H     1.0381646    2.0668700    0.0000000 
C     1.4469686    0.0456783    0.0000000 
O     2.6564209    0.1973821    0.0000000 
C     0.7327501   -1.2164952    0.0000000 
H     1.2993347   -2.1315265    0.0000000 
C    -0.6174191   -1.2203123    0.0000000 
H    -1.1943825   -2.1332769    0.0000000 
N    -1.3554107   -0.0694307    0.0000000 
H    -2.3817471   -0.0908730    0.0000000 
C    -0.7826396    1.1752343    0.0000000 
O    -1.4329606    2.2164531    0.0000000 
