24
./S66x8/28.110
C     0.7527215    1.4211113   -1.9446959 
H     1.4479656    2.2477117   -1.9869169 
C     1.2271123    0.1216456   -1.7771894 
H     2.2906099   -0.0576747   -1.6967712 
C     0.3304755   -0.9439657   -1.7062006 
H     0.7007058   -1.9528403   -1.5803243 
C    -1.0408571   -0.7106040   -1.8013055 
H    -1.7382566   -1.5353969   -1.7440180 
C    -1.5165560    0.5890698   -1.9668867 
H    -2.5805588    0.7700876   -2.0285956 
C    -0.6188031    1.6533552   -2.0406928 
H    -0.9872695    2.6620087   -2.1723006 
N    -0.3371557    0.8258939    1.5985921 
H    -0.7104631    1.7276553    1.3356992 
C     1.0549910    0.7529070    1.7306055 
O     1.7459013    1.7473307    1.5857714 
C     1.5338911   -0.5811707    2.0487157 
H     2.5909432   -0.7333866    2.1828368 
C     0.6541819   -1.5955519    2.1749322 
H     0.9601094   -2.6039725    2.4114566 
N    -0.6910640   -1.4105200    2.0048401 
H    -1.3398118   -2.1730789    2.1037092 
C    -1.2655123   -0.1857189    1.7054254 
O    -2.4633007   -0.0348957    1.5633133 
