10
./S22x5/05_1.2
C     0.0000000    0.0000000    0.0000000 
H     0.3645146    0.5132394   -0.8885123 
H     0.3645146    0.5131056    0.8885896 
H     0.3642157   -1.0262263   -0.0000773 
H    -1.0891229    0.0003110    0.0000000 
C     4.4619861    0.0000000    0.0000000 
H     5.5511090   -0.0003110   -0.0000000 
H     4.0974715   -0.5131056   -0.8885896 
H     4.0974715   -0.5132394    0.8885123 
H     4.0977704    1.0262263    0.0000773 
