18
./S66x8/30.110
C     0.8355202    1.1151643   -1.2617814 
H     1.4843270    1.9806059   -1.2636485 
C     1.3832779   -0.1661499   -1.2594160 
H     2.4571520   -0.2952074   -1.2604091 
C     0.5475576   -1.2813190   -1.2614955 
H     0.9729391   -2.2758072   -1.2634015 
C    -0.8355202   -1.1151643   -1.2617814 
H    -1.4843270   -1.9806059   -1.2636485 
C    -1.3832779    0.1661499   -1.2594160 
H    -2.4571520    0.2952074   -1.2604091 
C    -0.5475576    1.2813190   -1.2614955 
H    -0.9729391    2.2758072   -1.2634015 
C     0.6557807   -0.1167904    2.5263736 
H     1.0472415   -1.1239092    2.5219065 
H     1.3708545    0.6932736    2.5218720 
C    -0.6557807    0.1167904    2.5263736 
H    -1.3708545   -0.6932736    2.5218720 
H    -1.0472415    1.1239092    2.5219065 
