17
./NCIBLIND10/14
C     0.7028831    1.2174292    1.7059140 
C     1.4057691    0.0000000    1.7059156 
C     0.7028831   -1.2174292    1.7059140 
C    -0.7028846   -1.2174318    1.7059156 
C    -1.4057662    0.0000000    1.7059140 
C    -0.7028846    1.2174318    1.7059156 
H     1.2504987    2.1659272    1.7059131 
H     2.5010030    0.0000000    1.7059161 
H     1.2504987   -2.1659272    1.7059131 
H    -1.2505015   -2.1659321    1.7059161 
H    -2.5009973    0.0000000    1.7059131 
H    -1.2505015    2.1659321    1.7059161 
C     0.0000000    0.0000000   -4.0941968 
H     0.0000000    0.0000000   -2.9946656 
H     0.5183252    0.8977655   -4.4607047 
H    -1.0366503    0.0000000   -4.4607047 
H     0.5183252   -0.8977655   -4.4607047 
