23
./S66x8/44.90
C     0.1916693    2.5870971    0.6662637 
H     0.5869984    1.7531691    1.2284940 
H    -0.2025309    3.4217962    1.2281494 
C     0.1916693    2.5870971   -0.6662637 
H     0.5869984    1.7531691   -1.2284940 
H    -0.2025309    3.4217962   -1.2281494 
C     0.2310365   -0.9435182   -2.5329044 
H     0.9702981   -0.1426424   -2.5628676 
H     0.7716094   -1.8892506   -2.5693818 
H    -0.3764094   -0.8704207   -3.4336899 
C    -0.6167894   -0.8531329   -1.2709289 
H    -1.3628004   -1.6511888   -1.2708608 
H    -1.1708962    0.0879868   -1.2621885 
C     0.2163840   -0.9500651    0.0000000 
H     0.7698540   -1.8938913    0.0000000 
H     0.9693912   -0.1558349    0.0000000 
C    -0.6167894   -0.8531329    1.2709289 
H    -1.3628004   -1.6511888    1.2708608 
H    -1.1708962    0.0879868    1.2621885 
C     0.2310365   -0.9435182    2.5329044 
H     0.9702981   -0.1426424    2.5628676 
H    -0.3764094   -0.8704207    3.4336899 
H     0.7716094   -1.8892506    2.5693818 
