12
./S66x8/27A
C     1.2065954    0.6966282    0.0000000 
H     2.1434634    1.2375292    0.0000000 
C     1.2065954   -0.6966282    0.0000000 
H     2.1434634   -1.2375292    0.0000000 
C     0.0000000   -1.3932564    0.0000000 
H     0.0000000   -2.4750583    0.0000000 
C    -1.2065954   -0.6966282    0.0000000 
H    -2.1434634   -1.2375292    0.0000000 
C    -1.2065954    0.6966282    0.0000000 
H    -2.1434634    1.2375292    0.0000000 
C     0.0000000    1.3932564    0.0000000 
H     0.0000000    2.4750583    0.0000000 
