17
./NCIBLIND10/13
C     0.7028831    1.2174292    1.4117906 
C     1.4057691    0.0000000    1.4117925 
C     0.7028831   -1.2174292    1.4117906 
C    -0.7028846   -1.2174318    1.4117925 
C    -1.4057662    0.0000000    1.4117906 
C    -0.7028846    1.2174318    1.4117925 
H     1.2504987    2.1659272    1.4117896 
H     2.5010030    0.0000000    1.4117930 
H     1.2504987   -2.1659272    1.4117896 
H    -1.2505015   -2.1659321    1.4117930 
H    -2.5009973    0.0000000    1.4117896 
H    -1.2505015    2.1659321    1.4117930 
C    -0.0000000    0.0000000   -3.3883008 
H    -0.0000000    0.0000000   -2.2887696 
H     0.5183252    0.8977655   -3.7548088 
H    -1.0366503    0.0000000   -3.7548088 
H     0.5183252   -0.8977655   -3.7548088 
