30
./S66x8/38.125
C    -0.4554279   -2.3059375    1.2377784 
H    -0.5898248   -3.1624422    1.8971432 
H    -0.6486137   -1.4146709    1.8322650 
C     0.9747308   -2.3104600    0.6382817 
H     1.5149467   -3.1979032    0.9665746 
H     1.5591274   -1.4475291    0.9531025 
C     0.7818640   -2.3543962   -0.8854153 
H     1.6031983   -2.8497155   -1.4008877 
H     0.7051529   -1.3406714   -1.2839629 
C    -0.5625531   -3.0589025   -1.0559617 
H    -0.4490446   -4.1261736   -0.8512037 
H    -0.9852183   -2.9510759   -2.0538815 
C    -1.4109067   -2.4065811    0.0348805 
H    -2.3209144   -2.9580873    0.2652200 
H    -1.7054466   -1.4084244   -0.2939332 
C    -0.7818640    2.3543962   -0.8854153 
H    -0.7051529    1.3406714   -1.2839629 
H    -1.6031983    2.8497155   -1.4008877 
C    -0.9747308    2.3104600    0.6382817 
H    -1.5591274    1.4475291    0.9531025 
H    -1.5149467    3.1979032    0.9665746 
C     0.4554279    2.3059375    1.2377784 
H     0.6486137    1.4146709    1.8322650 
H     0.5898248    3.1624422    1.8971432 
C     1.4109067    2.4065811    0.0348805 
H     1.7054466    1.4084244   -0.2939332 
H     2.3209144    2.9580873    0.2652200 
C     0.5625531    3.0589025   -1.0559617 
H     0.9852183    2.9510759   -2.0538815 
H     0.4490446    4.1261736   -0.8512037 
