12
./S22x5/13A
C     0.0000000    0.0000000    1.0590349 
C     0.0000000   -1.2060079    1.7576739 
C     0.0000000   -1.2071769    3.1515908 
C     0.0000000    0.0000000    3.8485747 
C     0.0000000    1.2071769    3.1515908 
C     0.0000000    1.2060079    1.7576739 
H     0.0000000    0.0000000   -0.0215800 
H     0.0000000   -2.1416388    1.2144219 
H     0.0000000   -2.1435658    3.6929947 
H     0.0000000    0.0000000    4.9301496 
H     0.0000000    2.1435658    3.6929947 
H     0.0000000    2.1416388    1.2144219 
