16
./NCIBLIND10/74
C     3.8105304    0.7401943    0.0000000 
H     3.6848880    1.8284753    0.0000000 
H     4.3518358    0.4072329   -0.8963740 
H     4.3518358    0.4072329    0.8963740 
O     2.4638244    0.2003039    0.0000000 
C     2.4217136   -1.1604924    0.0000000 
O     3.4022625   -1.8834563    0.0000000 
H     1.3709533   -1.4944788    0.0000000 
C    -2.7278158    1.0266798    0.0000000 
H    -2.9566402    2.0975005    0.0000000 
H    -2.1590698    0.7455894   -0.8957355 
H    -2.1590698    0.7455894    0.8957355 
O    -4.0228607    0.3639670    0.0000000 
C    -3.9479793   -0.9807989    0.0000000 
O    -2.9188994   -1.6369816    0.0000000 
H    -4.9655089   -1.4065571    0.0000000 
