28
./NCIBLIND10/83
C    -0.2176724   -1.9850383   -2.0543457 
C     1.1904748   -1.9851583   -2.0302052 
C     1.8946883   -0.7656548   -2.0545857 
C     1.2023350    0.4582188   -2.0904864 
C    -0.2010621    0.4253982   -2.0992566 
C    -0.9312762   -0.7732049   -2.0896264 
H    -0.7641430   -2.9318566   -2.0365354 
H     1.7367453   -2.9315066   -1.9886544 
H     2.9878994   -0.7657548   -2.0440155 
H     1.7228550    1.4170573   -2.1121868 
H    -2.0219172   -0.7446844   -2.1008266 
N    -0.9381963    1.7020528   -2.0951165 
O    -0.2768736    2.7514731   -2.0756161 
O    -2.1778402    1.6544019   -2.0998266 
C    -1.2023350   -0.4582188    2.0904864 
C     0.2010621   -0.4253982    2.0992566 
C     0.9312762    0.7732049    2.0896264 
C     0.2176724    1.9850383    2.0543457 
C    -1.1904748    1.9851583    2.0302052 
C    -1.8946883    0.7656548    2.0545857 
H    -1.7228550   -1.4170573    2.1121868 
H     2.0219172    0.7446844    2.1008266 
H     0.7641430    2.9318566    2.0365354 
H    -1.7367453    2.9315066    1.9886544 
H    -2.9878994    0.7657548    2.0440155 
N     0.9381963   -1.7020528    2.0951165 
O     0.2768736   -2.7514731    2.0756161 
O     2.1778402   -1.6544019    2.0998266 
