19
./S66x8/11.125
N    -2.9779182    0.0313053   -0.3197001 
H    -2.2773322   -0.2216565   -1.0084124 
H    -3.8694621   -0.2561523   -0.7012278 
C    -2.7137243   -0.7173568    0.9079939 
H    -3.4653595   -0.4687969    1.6551616 
H    -2.6962335   -1.8053596    0.7940484 
H    -1.7477522   -0.4145580    1.3094444 
C     0.6205728    1.8521558   -0.6759464 
H     0.7451913    2.2633326   -1.6749908 
H     1.1271442    2.4931484    0.0418381 
H    -0.4458390    1.8256263   -0.4575250 
C     1.1325645    0.4343582   -0.6736524 
O     0.6725846   -0.4313783   -1.4128270 
N     2.1190475    0.1613258    0.2186783 
H     2.5188085    0.9162586    0.7440311 
C     2.7074928   -1.1582647    0.2961779 
H     1.9193162   -1.8995949    0.2031573 
H     3.4287526   -1.3302601   -0.5023665 
H     3.2021463   -1.2741329    1.2561174 
