32
./S66x8/37.125
C     0.7889443   -1.0408843   -3.1391397 
H     0.8425861   -1.1408836   -4.2248910 
H     1.4804323   -1.7630020   -2.7071563 
C     1.1059172    0.4061202   -2.7272146 
H     1.8271725    0.8713124   -3.3964241 
H     1.5445998    0.4209920   -1.7297931 
C    -0.2555290    1.1468570   -2.7238995 
H    -0.2690474    1.9820305   -3.4215533 
H    -0.4597743    1.5581632   -1.7358922 
C    -1.3096840    0.0849793   -3.0875677 
H    -1.4845306    0.0864108   -4.1648821 
H    -2.2677041    0.2592086   -2.5997182 
C    -0.6578497   -1.2389010   -2.6905701 
H    -1.1354090   -2.1064596   -3.1438834 
H    -0.6969885   -1.3641159   -1.6066566 
C     0.0554881    0.1077255    2.5335843 
C    -0.0408561   -0.0443605    4.0492248 
H     0.9516903   -0.0598267    4.5015820 
H    -0.5997809    0.7835240    4.4876597 
H    -0.5480208   -0.9730266    4.3145744 
C     0.7695413    1.4146306    2.1979594 
H     0.8510609    1.5481297    1.1182775 
H     0.2260690    2.2693190    2.6034608 
H     1.7771459    1.4252810    2.6161924 
C    -1.3495237    0.1275501    1.9362648 
H    -1.3125921    0.2447400    0.8524158 
H    -1.9318232    0.9549737    2.3446107 
H    -1.8794268   -0.8002367    2.1575941 
C     0.8433879   -1.0657594    1.9562461 
H     0.3481676   -2.0127502    2.1764893 
H     0.9382311   -0.9785767    0.8731113 
H     1.8481060   -1.1031641    2.3799946 
