24
./S22x5/21_1.2
O     0.0000000    0.0000000    0.0000000 
C    -0.6642439    1.0368791    0.0000000 
N    -0.1086634    2.2863893    0.0000000 
C    -0.8646919    3.4275217    0.0000000 
C    -2.2142314    3.4039093    0.0000000 
C    -2.9098696    2.1318037    0.0000000 
N    -2.0349245    1.0293011    0.0000000 
O    -4.1155212    1.9587338    0.0000000 
H    -2.7938401    4.3107990    0.0000000 
H     0.9179081    2.3343297    0.0000000 
H    -2.4693256    0.1165513    0.0000000 
H    -0.3000376    4.3480237    0.0000000 
O     3.0473758    2.3343297    0.0000000 
C     3.7116197    1.2974507    0.0000000 
N     3.1560392    0.0479404    0.0000000 
C     3.9120677   -1.0931920    0.0000000 
C     5.2616072   -1.0695795    0.0000000 
C     5.9572455    0.2025260    0.0000000 
N     5.0823003    1.3050286    0.0000000 
O     7.1628970    0.3755959    0.0000000 
H     5.8412159   -1.9764693    0.0000000 
H     2.1294677    0.0000000    0.0000000 
H     5.5167014    2.2177784    0.0000000 
H     3.3474134   -2.0136940    0.0000000 
