32
./S66x8/37.110
C     0.7941310   -1.0307835   -2.9067836 
H     0.8477727   -1.1307829   -3.9925349 
H     1.4856190   -1.7529012   -2.4748001 
C     1.1111039    0.4162209   -2.4948585 
H     1.8323592    0.8814132   -3.1640680 
H     1.5497865    0.4310928   -1.4974370 
C    -0.2503423    1.1569577   -2.4915434 
H    -0.2638607    1.9921313   -3.1891972 
H    -0.4545876    1.5682640   -1.5035361 
C    -1.3044973    0.0950801   -2.8552115 
H    -1.4793439    0.0965115   -3.9325260 
H    -2.2625174    0.2693093   -2.3673621 
C    -0.6526631   -1.2288002   -2.4582139 
H    -1.1302223   -2.0963589   -2.9115273 
H    -0.6918018   -1.3540152   -1.3743005 
C     0.0509116    0.0988130    2.3285642 
C    -0.0454326   -0.0532730    3.8442047 
H     0.9471138   -0.0687392    4.2965619 
H    -0.6043573    0.7746115    4.2826396 
H    -0.5525973   -0.9819390    4.1095543 
C     0.7649649    1.4057181    1.9929393 
H     0.8464844    1.5392173    0.9132574 
H     0.2214925    2.2604066    2.3984407 
H     1.7725694    1.4163685    2.4111723 
C    -1.3541002    0.1186377    1.7312447 
H    -1.3171686    0.2358276    0.6473957 
H    -1.9363997    0.9460612    2.1395906 
H    -1.8840033   -0.8091492    1.9525740 
C     0.8388114   -1.0746719    1.7512260 
H     0.3435911   -2.0216626    1.9714692 
H     0.9336546   -0.9874891    0.6680912 
H     1.8435295   -1.1120765    2.1749745 
