34
./S66x8/35.90
C     0.3413925    2.1405396   -2.5327614 
H     0.8907528    3.0813050   -2.5662950 
H     1.0710962    1.3312562   -2.5617680 
H    -0.2659453    2.0750408   -3.4341614 
C    -0.5093280    2.0574587   -1.2722613 
H    -1.0753912    1.1228212   -1.2700361 
H    -1.2477959    2.8624301   -1.2710267 
C     0.3230777    2.1422380    0.0000000 
H     1.0672922    1.3397069    0.0000000 
H     0.8873343    3.0795978    0.0000000 
C    -0.5093280    2.0574587    1.2722613 
H    -1.0753912    1.1228212    1.2700361 
H    -1.2477959    2.8624301    1.2710267 
C     0.3413925    2.1405396    2.5327614 
H     0.8907528    3.0813050    2.5662950 
H    -0.2659453    2.0750408    3.4341614 
H     1.0710962    1.3312562    2.5617680 
C    -0.0417390   -2.1128982    0.0000000 
C     0.1237377   -3.6300810    0.0000000 
H    -0.3395358   -4.0711346   -0.8837976 
H     1.1793009   -3.9055143    0.0000000 
H    -0.3395358   -4.0711346    0.8837976 
C     0.6211311   -1.5277040   -1.2443450 
H     0.5138810   -0.4425107   -1.2668581 
H     1.6863647   -1.7629711   -1.2642447 
H     0.1688262   -1.9302821   -2.1519954 
C     0.6211311   -1.5277040    1.2443450 
H     0.5138810   -0.4425107    1.2668581 
H     1.6863647   -1.7629711    1.2642447 
H     0.1688262   -1.9302821    2.1519954 
C    -1.5276418   -1.7630242    0.0000000 
H    -2.0250478   -2.1704446    0.8780955 
H    -1.6721633   -0.6816338    0.0000000 
H    -2.0250478   -2.1704446   -0.8780955 
