12
./S66x8/42A
N     0.3210463   -1.2640800    0.0000000 
H     0.5757314   -2.2425748    0.0000000 
C    -1.0537152   -0.9855391    0.0000000 
O    -1.8682897   -1.8921640    0.0000000 
C    -1.3513686    0.4362257    0.0000000 
H    -2.3810070    0.7494943    0.0000000 
C    -0.3427798    1.3312794    0.0000000 
H    -0.5130918    2.3975640    0.0000000 
N     0.9709616    0.9432778    0.0000000 
H     1.7150916    1.6208354    0.0000000 
C     1.3796401   -0.3799053    0.0000000 
O     2.5477810   -0.7144132    0.0000000 
