15
./S22x5/10_1.0
C     0.7806119   -0.6098880   -1.2075429 
C     0.4784040    0.7510409   -1.2079039 
C     0.3276590    1.4318569    0.0000000 
C     0.4784040    0.7510409    1.2079039 
C     0.7806119   -0.6098880    1.2075429 
C     0.9321509   -1.2899609    0.0000000 
H     0.8966689   -1.1376049   -2.1441478 
H     0.3573900    1.2782089   -2.1440548 
H     0.0918590    2.4871408    0.0000000 
H     0.3573900    1.2782089    2.1440548 
H     0.8966689   -1.1376049    2.1441478 
H     1.1690059   -2.3451668    0.0000000 
O    -2.7885268   -0.2744850    0.0000000 
H    -2.6229108   -1.2190829    0.0000000 
H    -1.9015099    0.0979110    0.0000000 
