14
./NCIBLIND10/96
C    -1.5110041   -2.7025236   -2.3910990 
H    -1.8879914   -1.9979500   -3.1396134 
H    -1.7518388   -2.3543068   -1.3774194 
H    -1.8616209   -3.7270533   -2.5507821 
N    -0.0226354   -2.7117337   -2.4864408 
O     0.5313653   -1.6454532   -2.7959068 
O     0.5678560   -3.7633640   -2.2115255 
C     1.4283826    3.0019765    2.3060616 
H     1.6399666    3.6063281    3.1983488 
H     1.3054102    3.6353487    1.4222446 
H     2.1863272    2.2255715    2.1649489 
N     0.1263274    2.3184333    2.5511564 
O    -0.9086725    2.9119247    2.2178199 
O     0.1581281    1.2028018    3.0922068 
