13
./S66x8/09.95
N    -1.5385806   -0.5747189   -0.7873278 
H    -0.5481811   -0.7869341   -0.8154003 
H    -2.0135681   -1.4642653   -0.7104926 
C    -1.8209118    0.2270331    0.4009069 
H    -2.8867559    0.4413414    0.4506943 
H    -1.5259189   -0.2266279    1.3528788 
H    -1.3081351    1.1834548    0.3164788 
O     1.5894954   -0.5831029   -0.7187581 
H     1.8715215   -0.2131542   -1.5586222 
C     1.9754092    0.3284813    0.3006781 
H     1.6522262   -0.1011513    1.2437446 
H     3.0564645    0.4675648    0.3397180 
H     1.4969347    1.3020792    0.1855015 
