28
./S22x5/16_0.9
C     0.0000000    0.0000000    0.0000000 
C    -0.0444856   -1.1779785    0.7431600 
C    -0.0108246   -2.4112083    0.0953331 
C     0.0641508   -2.4669336   -1.2956235 
C     0.1009509   -1.2874370   -2.0389598 
C     0.0673568   -0.0535002   -1.3913762 
H    -0.0137977    0.9568815    0.5033483 
H    -0.0913470   -1.1344579    1.8223988 
H    -0.0397540   -3.3256800    0.6723586 
H     0.0853895   -3.4248488   -1.7983737 
H     0.1464428   -1.3301724   -3.1195145 
H     0.1008528    0.8624562   -1.9649454 
H     2.7177658   -0.5780568    3.4949045 
C     2.7935082   -0.5719698    2.4157538 
C     2.7530541    0.6336501    1.7343494 
H     2.6459357    1.5670384    2.2720359 
C     2.8558046    0.6243475    0.3333396 
C     2.8456373    1.6336619   -0.6734992 
H     2.7620134    2.6980304   -0.5332517 
C     2.9762244    0.9928081   -1.8845173 
N     3.0819300   -0.3600866   -1.6754228 
C     2.9977501   -0.6243475   -0.3333396 
C     3.0462879   -1.8398428    0.3517549 
H     3.1531067   -2.7802177   -0.1729402 
C     2.9415166   -1.7962115    1.7330360 
H     2.9731482   -2.7182612    2.2976348 
H     3.1038761   -1.0564461   -2.3989786 
H     3.0124414    1.3980362   -2.8818075 
