24
./S66x8/24.110
C     0.1526054    1.1215572   -1.8612282 
H     0.7978017    1.9869606   -1.7940318 
C     0.6981958   -0.1586904   -1.7975355 
H     1.7649143   -0.2865384   -1.6750260 
C    -0.1331550   -1.2739652   -1.8791186 
H     0.2904047   -2.2678712   -1.8270190 
C    -1.5096178   -1.1095126   -2.0220826 
H    -2.1544956   -1.9757122   -2.0854825 
C    -2.0555656    0.1716120   -2.0833150 
H    -3.1238227    0.2997826   -2.1954721 
C    -1.2238676    1.2872044   -2.0051704 
H    -1.6469407    2.2815617   -2.0546551 
C     1.5096178    1.1095126    2.0220826 
H     2.1544956    1.9757122    2.0854825 
C     2.0555656   -0.1716120    2.0833150 
H     3.1238227   -0.2997826    2.1954721 
C     1.2238676   -1.2872044    2.0051704 
H     1.6469407   -2.2815617    2.0546551 
C    -0.1526054   -1.1215572    1.8612282 
H    -0.7978017   -1.9869606    1.7940318 
C    -0.6981958    0.1586904    1.7975355 
H    -1.7649143    0.2865384    1.6750260 
C     0.1331550    1.2739652    1.8791186 
H    -0.2904047    2.2678712    1.8270190 
