9
./S66x8/08.150
O    -1.2638336    0.6727991    0.0000000 
H    -0.2995649    0.6403250    0.0000000 
C    -1.7252626   -0.6626785    0.0000000 
H    -2.8115493   -0.6312872    0.0000000 
H    -1.4037684   -1.2165230   -0.8850822 
H    -1.4037684   -1.2165230    0.8850822 
O     2.6767493    0.5426317    0.0000000 
H     3.1154990    0.9356279   -0.7571166 
H     3.1154990    0.9356279    0.7571166 
