23
./S66x8/29.200
N     1.0009458   -0.1586009   -3.2135050 
C     0.4021255   -1.3457257   -3.3897644 
H     1.0416684   -2.2168001   -3.3239232 
C    -0.9611235   -1.4959262   -3.6320502 
H    -1.3802253   -2.4841460   -3.7565993 
C    -1.7576772   -0.3572169   -3.6996830 
H    -2.8208222   -0.4332314   -3.8819719 
C    -1.1534319    0.8833594   -3.5233930 
H    -1.7286238    1.7972236   -3.5548602 
C     0.2179091    0.9288320   -3.2858673 
H     0.7148850    1.8807751   -3.1456681 
N    -0.6309968   -0.3040098    3.0272866 
H    -1.5258859   -0.7358733    2.8426831 
C    -0.6307420    1.0938000    3.1202976 
O    -1.6706250    1.7219998    3.0054474 
C     0.6887528    1.6528813    3.3478606 
H     0.7900692    2.7201035    3.4437288 
C     1.7586264    0.8341890    3.4193807 
H     2.7625054    1.2028537    3.5678072 
N     1.6405652   -0.5231042    3.3068260 
H     2.4540012   -1.1152916    3.2986584 
C     0.4401183   -1.1703367    3.0804443 
O     0.3479811   -2.3757547    2.9468650 
