24
./S66x8/24.90
C     0.2736393    1.1204216   -1.5149846 
H     0.9188356    1.9858250   -1.4477882 
C     0.8192297   -0.1598260   -1.4512919 
H     1.8859482   -0.2876740   -1.3287824 
C    -0.0121211   -1.2751008   -1.5328750 
H     0.4114386   -2.2690068   -1.4807754 
C    -1.3885839   -1.1106482   -1.6758390 
H    -2.0334618   -1.9768478   -1.7392389 
C    -1.9345317    0.1704764   -1.7370714 
H    -3.0027889    0.2986470   -1.8492285 
C    -1.1028337    1.2860687   -1.6589268 
H    -1.5259068    2.2804261   -1.7084115 
C     1.3885839    1.1106482    1.6758390 
H     2.0334618    1.9768478    1.7392389 
C     1.9345317   -0.1704764    1.7370714 
H     3.0027889   -0.2986470    1.8492285 
C     1.1028337   -1.2860687    1.6589268 
H     1.5259068   -2.2804261    1.7084115 
C    -0.2736393   -1.1204216    1.5149846 
H    -0.9188356   -1.9858250    1.4477882 
C    -0.8192297    0.1598260    1.4512919 
H    -1.8859482    0.2876740    1.3287824 
C     0.0121211    1.2751008    1.5328750 
H    -0.4114386    2.2690068    1.4807754 
