24
./S66x8/47.100
C     0.7380237    1.2113979   -2.6444250 
H     1.3120510    2.1125190   -2.8119930 
C     1.3839224   -0.0210696   -2.5583763 
H     2.4593498   -0.0763273   -2.6578460 
C     0.6438749   -1.1822567   -2.3417678 
H     1.1451696   -2.1377208   -2.2709361 
C    -0.7421506   -1.1113576   -2.2132629 
H    -1.3156908   -2.0131161   -2.0469543 
C    -1.3881994    0.1209675   -2.2980636 
H    -2.4635903    0.1767850   -2.1971553 
C    -0.6480622    1.2825929   -2.5128147 
H    -1.1489934    2.2388838   -2.5760572 
C     0.1620391    0.2440041    1.0727666 
H     0.2841655    0.4694876    0.0223401 
C    -0.9290425   -0.5108945    1.5001028 
H    -1.6495470   -0.8674087    0.7764084 
C    -1.0897424   -0.8050198    2.8530529 
H    -1.9368500   -1.3909884    3.1833004 
C    -0.1578599   -0.3439664    3.7815470 
H    -0.2817534   -0.5719326    4.8315545 
C     0.9337252    0.4111356    3.3563067 
H     1.6568443    0.7689688    4.0766893 
C     1.0925291    0.7046207    2.0028154 
H     1.9397870    1.2906954    1.6727680 
