21
./S66x8/53.110
C     0.8758483    0.5752679   -1.4326081 
H     1.5341131    1.1194150   -0.7695966 
C     1.3631847   -0.4586432   -2.2312050 
H     2.4131714   -0.7166093   -2.2003993 
C     0.4980942   -1.1599657   -3.0701782 
H     0.8763716   -1.9621721   -3.6891867 
C    -0.8545422   -0.8258207   -3.1128142 
H    -1.5251181   -1.3689647   -3.7647785 
C    -1.3421097    0.2097215   -2.3165159 
H    -2.3912834    0.4702027   -2.3515835 
C    -0.4781564    0.9098924   -1.4753704 
H    -0.8458233    1.7070753   -0.8443254 
C     0.0578616    0.5736504    2.5726331 
O     0.3043509    1.6170767    1.9853939 
N    -0.2461857   -0.5813561    1.9214658 
H    -0.2209854   -0.5883715    0.9148292 
H    -0.4019622   -1.4368484    2.4171675 
C     0.0807063    0.4787586    4.0810506 
H     1.1124201    0.5629709    4.4161244 
H    -0.3411976   -0.4478844    4.4620763 
H    -0.4687584    1.3226049    4.4878211 
