24
./S66x8/57.150
C     0.5619805    1.0329543   -2.6059309 
H     1.1651394    1.9304750   -2.6133891 
C     1.1723685   -0.2178404   -2.6924135 
H     2.2487719   -0.2899040   -2.7642759 
C     0.3949233   -1.3749534   -2.6847770 
H     0.8684170   -2.3446594   -2.7533948 
C    -0.9929791   -1.2823283   -2.5875650 
H    -1.5959812   -2.1799974   -2.5820571 
C    -1.6040772   -0.0320310   -2.4985152 
H    -2.6803132    0.0401730   -2.4224278 
C    -0.8264854    1.1261358   -2.5091832 
H    -1.3008508    2.0959302   -2.4443310 
C     0.4256320    2.0008828    2.7208997 
H     0.0674869    2.1666136    1.7076069 
H     1.4502156    2.3575923    2.8023412 
H    -0.1784648    2.5745186    3.4192524 
C     0.3887857    0.5477197    3.1366085 
O     0.6734141    0.1953582    4.2751466 
N     0.0163904   -0.3179971    2.1573674 
H    -0.1447375    0.0399937    1.2312991 
C    -0.0204024   -1.7448763    2.3754545 
H     0.0576851   -1.9117838    3.4454507 
H    -0.9556430   -2.1632269    2.0087164 
H     0.8087240   -2.2487491    1.8781171 
