24
./S22x5/20_2.0
N    -0.2779050    1.2936794    0.1761420 
C    -0.3131434    0.7786571   -1.0901939 
H    -0.5566284    1.4829762   -1.8714369 
C    -0.0544293   -0.5220341   -1.3382799 
H    -0.0833392   -0.9200717   -2.3377959 
C     0.3157418   -1.4033197   -0.2463800 
O     0.6570666   -2.5716554   -0.3518370 
N     0.2728925   -0.7832863    1.0088449 
H     0.5755751   -1.3424830    1.7975798 
C     0.0576764    0.5514820    1.2929359 
O     0.1621978    1.0342396    2.4040148 
H    -0.3558820    2.2859500    0.3310219 
N     7.0085591   -1.2936794    0.1761420 
C     7.0437975   -0.7786571   -1.0901939 
H     7.2872825   -1.4829762   -1.8714369 
C     6.7850835    0.5220341   -1.3382799 
H     6.8139933    0.9200717   -2.3377959 
C     6.4149123    1.4033197   -0.2463800 
O     6.0735875    2.5716554   -0.3518370 
N     6.4577616    0.7832863    1.0088449 
H     6.1550790    1.3424830    1.7975798 
C     6.6729777   -0.5514820    1.2929359 
O     6.5684563   -1.0342396    2.4040148 
H     7.0865361   -2.2859500    0.3310219 
