23
./S66x8/29.110
N     1.1381818   -0.0800063   -1.6751454 
C     0.5393615   -1.2671310   -1.8514048 
H     1.1789044   -2.1382054   -1.7855636 
C    -0.8238875   -1.4173316   -2.0936906 
H    -1.2429893   -2.4055514   -2.2182397 
C    -1.6204412   -0.2786223   -2.1613235 
H    -2.6835862   -0.3546367   -2.3436123 
C    -1.0161959    0.9619541   -1.9850334 
H    -1.5913878    1.8758183   -2.0165006 
C     0.3551451    1.0074266   -1.7475078 
H     0.8521210    1.9593697   -1.6073086 
N    -0.7567965   -0.3760549    1.6171236 
H    -1.6516855   -0.8079184    1.4325201 
C    -0.7565416    1.0217549    1.7101346 
O    -1.7964247    1.6499547    1.5952845 
C     0.5629531    1.5808363    1.9376977 
H     0.6642695    2.6480584    2.0335659 
C     1.6328267    0.7621440    2.0092177 
H     2.6367058    1.1308086    2.1576443 
N     1.5147656   -0.5951493    1.8966631 
H     2.3282016   -1.1873367    1.8884954 
C     0.3143186   -1.2423817    1.6702814 
O     0.2221814   -2.4477998    1.5367021 
