18
./S66x8/31.125
N    -0.0500504   -1.2299252   -1.3824825 
H    -0.0523988   -2.2405376   -1.3666231 
C    -1.3079899   -0.6117203   -1.4124188 
O    -2.3263967   -1.2823988   -1.4222736 
C    -1.2359952    0.8382044   -1.4286691 
H    -2.1519157    1.4016165   -1.4712192 
C    -0.0343711    1.4479919   -1.3827399 
H     0.0711896    2.5226318   -1.3845625 
N     1.1353524    0.7404386   -1.3246001 
H     2.0245436    1.2069283   -1.2607520 
C     1.1940093   -0.6416768   -1.3006696 
O     2.2372212   -1.2610322   -1.2222591 
C     0.7473717   -0.1986480    2.7483039 
H     1.2644895   -1.0696359    2.3710773 
H     1.3529827    0.5883460    3.1756182 
C    -0.5814048   -0.0980576    2.6990570 
H    -1.1934077   -0.8855372    2.2821562 
H    -1.0932298    0.7730120    3.0830567 
