18
./S66x8/21.125
C    -2.2837549    0.0530946   -0.0945207 
O    -1.6993056    1.0280661    0.3833630 
N    -1.6396264   -1.0320269   -0.5613448 
H    -0.6194225   -1.0756334   -0.5286595 
H    -2.1576322   -1.8006813   -0.9401064 
C    -3.7907245    0.0289171   -0.1799563 
H    -4.1946341    0.1354599    0.8237321 
H    -4.1834327   -0.8784476   -0.6312504 
H    -4.1171633    0.8895140   -0.7582434 
C     2.2837549   -0.0530946    0.0945207 
O     1.6993056   -1.0280661   -0.3833630 
N     1.6396264    1.0320269    0.5613448 
H     0.6194225    1.0756334    0.5286595 
H     2.1576322    1.8006813    0.9401064 
C     3.7907245   -0.0289171    0.1799563 
H     4.1834327    0.8784476    0.6312504 
H     4.1946341   -0.1354599   -0.8237321 
H     4.1171633   -0.8895140    0.7582434 
