24
./S66x8/17.90
N    -1.4002388    1.1573443    0.0000000 
H    -0.3718171    1.2085811    0.0000000 
C    -1.9670642   -0.1058502    0.0000000 
O    -1.2643385   -1.1189409    0.0000000 
C    -3.4138619   -0.1277551    0.0000000 
H    -3.9198301   -1.0772585    0.0000000 
C    -4.0922596    1.0386674    0.0000000 
H    -5.1711367    1.0853606    0.0000000 
N    -3.4450765    2.2399856    0.0000000 
H    -3.9540777    3.1084541    0.0000000 
C    -2.0617183    2.3715964    0.0000000 
O    -1.5100833    3.4516119    0.0000000 
N     3.3052125    0.0576471    0.0000000 
H     3.7524563    0.9642203    0.0000000 
C     4.1612603   -1.0569707    0.0000000 
O     5.3707123   -0.9052662    0.0000000 
C     3.4470419   -2.3191442    0.0000000 
H     4.0136264   -3.2341749    0.0000000 
C     2.0968729   -2.3229621    0.0000000 
H     1.5199096   -3.2359268    0.0000000 
N     1.3588815   -1.1720812    0.0000000 
H     0.3325452   -1.1935240    0.0000000 
C     1.9316524    0.0725838    0.0000000 
O     1.2813315    1.1138021    0.0000000 
