32
./NCIBLIND10/41
C     2.6433694   -0.6418349   -0.5450577 
H     3.0609375   -1.3077777   -1.3110825 
H     2.1492199    0.2112316   -1.0402973 
C     1.6446402   -1.3791691    0.3552797 
H     1.4730269   -0.8070281    1.2738174 
H     2.0147173   -2.3817284    0.6277249 
N    -0.7753965   -1.7156256    0.3897703 
N     4.9517640    0.0882292   -0.3501339 
N     0.3619454   -1.4444104   -0.3568541 
H     0.3125545   -2.0184514   -1.2001703 
N     3.7479907   -0.2027564    0.3101688 
H     3.5249264    0.6184594    0.8791798 
O     5.2005288   -0.5293427   -1.3881140 
O     5.6838581    0.9015549    0.2184970 
O    -0.7652263   -1.3971195    1.5885535 
O    -1.7400751   -2.1753345   -0.2308516 
C    -2.7629349    0.7133413    0.3609798 
H    -2.6393925   -0.2445272    0.8830498 
H    -3.1371121    1.4650858    1.0787836 
C    -1.4424494    1.1676400   -0.2626723 
H    -1.5607817    2.1213784   -0.7978226 
H    -1.0721622    0.4138255   -0.9775660 
N     0.8086040    1.6357791    0.4404513 
N    -4.9533071   -0.0033126   -0.3648842 
N    -0.4886910    1.3786841    0.8308088 
H    -0.4594904    0.6583902    1.5583529 
N    -3.6963529    0.4919370   -0.7453616 
H    -3.8794364    1.2973425   -1.3466632 
O    -5.0099282   -0.6444749    0.6852760 
O    -5.8730949    0.2137416   -1.1576495 
O     0.9889175    2.0761576   -0.7006607 
O     1.6888310    1.4401153    1.2951478 
