14
./NCIBLIND10/5B
C    -5.8952755    0.1741816    0.0233644 
C    -4.5200890    0.0273587   -0.3357525 
N    -6.7808226   -0.9485701    0.0849556 
N    -6.4652965    1.4424960    0.3510607 
O    -7.7455412   -0.9109494    0.8617006 
O    -6.5142075   -1.9520994   -0.6251881 
O    -5.6956017    2.3521536    0.7577485 
O    -7.6809100    1.6170294    0.1837475 
N    -4.0449498   -1.1429738   -0.8063916 
H    -3.0584608   -1.2258354   -1.0320960 
H    -4.7238729   -1.8691078   -1.0137056 
N    -3.6545023    1.0514285   -0.2052600 
H    -2.6869536    0.9585267   -0.4952456 
H    -4.0045090    1.8956848    0.2402586 
