21
./S66x8/23.95
C    -2.4795408   -0.4357280   -0.0725667 
O    -1.8180905    0.5946488    0.0946742 
N    -1.9173943   -1.6434782   -0.2452241 
H    -0.9029669   -1.7379271   -0.2392693 
H    -2.4910276   -2.4536907   -0.3776253 
C    -3.9850588   -0.3806093   -0.0868292 
H    -4.3247892   -0.0007619    0.8735590 
H    -4.4489289   -1.3445015   -0.2771537 
H    -4.2968013    0.3281235   -0.8495400 
N     2.8671348   -0.5311613   -0.0515078 
H     3.3571642   -1.4071185   -0.1694463 
C     3.6707608    0.6116836    0.0989739 
O     4.8863228    0.5160613    0.0837891 
C     2.8981686    1.8270001    0.2621178 
H     3.4199316    2.7601930    0.3851529 
C     1.5490079    1.7653246    0.2564411 
H     0.9286038    2.6416850    0.3741180 
N     0.8639258    0.5930431    0.1018753 
H    -0.1688647    0.5839820    0.1010380 
C     1.4948157   -0.6114264   -0.0603847 
O     0.8976270   -1.6753424   -0.2021922 
