15
./S66x8/04.105
O    -3.3698044    0.4321556    0.1634768 
H    -3.8892468    1.2306864    0.2650542 
H    -2.4528821    0.7483896    0.1779168 
C    -0.6422048   -1.4138993   -0.1452650 
H     0.0077580   -2.2750111   -0.2781804 
H    -1.3231808   -1.3364272   -0.9891303 
H    -1.2552217   -1.5526952    0.7417434 
C     0.1125273   -0.1158864   -0.0126715 
O    -0.4641882    0.9594085    0.1439173 
N     1.4631604   -0.2133891   -0.0772895 
H     1.8641120   -1.1239230   -0.2068046 
C     2.3314025    0.9385814    0.0321536 
H     1.6949084    1.8068818    0.1669382 
H     2.9969920    0.8471262    0.8882465 
H     2.9258682    1.0680019   -0.8701056 
