10
./S66x8/03.200
O    -3.9176215   -0.8347426   -0.0124482 
H    -4.2762782    0.0529400    0.0198841 
H    -2.9561141   -0.6971476    0.0036800 
N     1.0647390   -0.5384992    0.0228637 
H     1.3601035   -1.0911371   -0.7719271 
H     1.3748195   -1.0492202    0.8397232 
C     1.7240743    0.7698648   -0.0173779 
H     1.4135319    1.3515898    0.8471375 
H     2.8153836    0.7305698   -0.0263336 
H     1.3973620    1.3057823   -0.9052017 
