15
./S66x8/04.90
O    -3.1425364    0.4562708    0.1595913 
H    -3.6619788    1.2548016    0.2611687 
H    -2.2256142    0.7725049    0.1740313 
C    -0.6990218   -1.4199281   -0.1442936 
H    -0.0490590   -2.2810399   -0.2772090 
H    -1.3799978   -1.3424560   -0.9881589 
H    -1.3120387   -1.5587241    0.7427147 
C     0.0557103   -0.1219152   -0.0117001 
O    -0.5210052    0.9533797    0.1448886 
N     1.4063434   -0.2194179   -0.0763181 
H     1.8072950   -1.1299519   -0.2058332 
C     2.2745855    0.9325526    0.0331250 
H     1.6380914    1.8008530    0.1679096 
H     2.9401750    0.8410974    0.8892179 
H     2.8690512    1.0619731   -0.8691342 
