23
./S66x8/49.105
C     0.8500669    1.0940402   -2.1210304 
H     1.5113957    1.9393433   -1.9871030 
C     1.3804990   -0.1813338   -2.3093244 
H     2.4521734   -0.3253511   -2.3176330 
C     0.5290578   -1.2709228   -2.4872930 
H     0.9407170   -2.2599049   -2.6355623 
C    -0.8527260   -1.0853419   -2.4741012 
H    -1.5133915   -1.9303365   -2.6121221 
C    -1.3830560    0.1897559   -2.2828718 
H    -2.4547278    0.3335374   -2.2704530 
C    -0.5316234    1.2795437   -2.1077465 
H    -0.9439345    2.2689278   -1.9631190 
N     0.0265546    0.3631169    4.0772048 
C     0.1812384    1.3010785    3.1323280 
H     0.3230092    2.3136045    3.4902297 
C     0.1670292    1.0337887    1.7658285 
H     0.2972692    1.8348145    1.0519431 
C    -0.0173092   -0.2778410    1.3405381 
H    -0.0338756   -0.5209596    0.2871902 
C    -0.1791581   -1.2628753    2.3093972 
H    -0.3257011   -2.2980863    2.0346257 
C    -0.1499556   -0.8955422    3.6524867 
H    -0.2735517   -1.6430562    4.4265877 
