15
./S66x8/65.90
N     0.0846508   -0.1814356    0.0000000 
C    -0.0383996    0.5071141   -1.1425884 
H     0.0633908   -0.0667559   -2.0553908 
C    -0.2824735    1.8764834   -1.1939937 
H    -0.3720378    2.3747092   -2.1485853 
C    -0.4070008    2.5780749    0.0000000 
H    -0.5960035    3.6424924    0.0000000 
C    -0.2824735    1.8764834    1.1939937 
H    -0.3720378    2.3747092    2.1485853 
C    -0.0383996    0.5071141    1.1425884 
H     0.0633908   -0.0667559    2.0553908 
C     0.6110703   -4.4610542    0.0000000 
H     0.7264860   -5.5160659    0.0000000 
C     0.4789944   -3.2548090    0.0000000 
H     0.3608430   -2.1903044    0.0000000 
