24
./S66x8/26.105
N     1.4454711    0.8515857    1.0276159 
H     1.1203824    1.3980621    1.8163466 
C     1.3775527    1.4693680   -0.2276640 
O     0.9891314    2.6229160   -0.3329857 
N     2.0799930   -1.2013701    0.1949192 
H     1.7958555    1.0026809   -2.3190046 
C     2.0943069   -0.6853330   -1.0714064 
H     2.3660870   -1.3792218   -1.8526543 
C     1.7830824    0.6037760   -1.3194962 
H     2.1980242   -2.1896827    0.3498201 
C     1.7145151   -0.4733678    1.3117093 
O     1.6296860   -0.9599782    2.4228000 
N    -1.4454711   -0.8515857    1.0276159 
H    -1.1203824   -1.3980621    1.8163466 
C    -1.3775527   -1.4693680   -0.2276640 
O    -0.9891314   -2.6229160   -0.3329857 
N    -2.0799930    1.2013701    0.1949192 
H    -1.7958555   -1.0026809   -2.3190046 
C    -2.0943069    0.6853330   -1.0714064 
H    -2.3660870    1.3792218   -1.8526543 
C    -1.7830824   -0.6037760   -1.3194962 
H    -2.1980242    2.1896827    0.3498201 
C    -1.7145151    0.4733678    1.3117093 
O    -1.6296860    0.9599782    2.4228000 
