14
./S66x8/10.200
N    -2.7496217    0.4003057   -0.8766812 
H    -1.9210259   -0.1845478   -0.9270233 
H    -3.4114492    0.0106462   -1.5349182 
C    -3.3096391    0.3207879    0.4706969 
H    -4.2037181    0.9386341    0.5319178 
H    -3.5737258   -0.6864543    0.8082025 
H    -2.5912558    0.7280643    1.1798376 
N     2.8792883   -0.9268546   -0.4862729 
H     3.1755569   -0.6523168   -1.4142582 
H     3.5028379   -1.6745449   -0.2110781 
C     3.0395182    0.2083560    0.4274024 
H     2.7693279   -0.1063398    1.4330555 
H     4.0469286    0.6301326    0.4643741 
H     2.3469779    0.9941315    0.1347451 
