17
./S66x8/33.95
N     1.5227575    1.0471863    0.0000000 
C     0.8208766    1.0866637   -1.1400524 
H     1.4003661    1.0529346   -2.0547014 
C    -0.5681896    1.1720834   -1.1931033 
H    -1.0724288    1.2041344   -2.1486148 
C    -1.2802383    1.2194669    0.0000000 
H    -2.3593208    1.2878197    0.0000000 
C    -0.5681896    1.1720834    1.1931033 
H    -1.0724288    1.2041344    2.1486148 
C     0.8208766    1.0866637    1.1400524 
H     1.4003661    1.0529346    2.0547014 
C     0.1589994   -2.0983717    0.6662693 
H     1.0693995   -1.9393027    1.2258881 
H    -0.7506223   -2.2553782    1.2285406 
C     0.1589994   -2.0983717   -0.6662693 
H     1.0693995   -1.9393027   -1.2258881 
H    -0.7506223   -2.2553782   -1.2285406 
