29
./S66x8/43.90
N     0.5686727   -1.0043798   -2.0572517 
H     0.3517813   -1.9649677   -1.8287660 
C    -0.4898648   -0.2408030   -2.5685036 
O    -1.5881802   -0.7418703   -2.7395748 
C    -0.1242832    1.1378081   -2.8435300 
H    -0.8671521    1.7983432   -3.2560070 
C     1.1261335    1.5644679   -2.5726342 
H     1.4444417    2.5804035   -2.7533346 
N     2.0767212    0.7331345   -2.0440856 
H     2.9979274    1.0704342   -1.8197396 
C     1.8453746   -0.5966456   -1.7348556 
O     2.6863977   -1.3173907   -1.2345801 
C    -0.5900802   -0.1777922    1.6138056 
C    -1.9068264    0.5634966    1.8286785 
H    -2.6138978   -0.0547096    2.3835408 
H    -1.7473268    1.4836811    2.3928635 
H    -2.3645361    0.8249936    0.8735248 
C     0.0253564   -0.5312301    2.9650830 
H     0.9685186   -1.0636034    2.8343012 
H     0.2223774    0.3685116    3.5498852 
H    -0.6459376   -1.1689671    3.5418198 
C     0.3750441    0.7156856    0.8380165 
H     1.3236146    0.2030909    0.6676625 
H     0.5803343    1.6338221    1.3914429 
H    -0.0473513    0.9941722   -0.1294479 
C    -0.8513974   -1.4578266    0.8234407 
H    -1.3151358   -1.2359929   -0.1391839 
H     0.0811789   -1.9962255    0.6438040 
H    -1.5219052   -2.1196406    1.3736256 
