17
./S66x8/33.90
N     1.5232669    0.9905861    0.0000000 
C     0.8213859    1.0300635   -1.1400545 
H     1.4008754    0.9963344   -2.0547035 
C    -0.5676802    1.1154832   -1.1931054 
H    -1.0719195    1.1475342   -2.1486169 
C    -1.2797289    1.1628667    0.0000000 
H    -2.3588115    1.2312195    0.0000000 
C    -0.5676802    1.1154832    1.1931054 
H    -1.0719195    1.1475342    2.1486169 
C     0.8213859    1.0300635    1.1400545 
H     1.4008754    0.9963344    2.0547035 
C     0.1580655   -1.9946046    0.6662731 
H     1.0684657   -1.8355356    1.2258920 
H    -0.7515562   -2.1516111    1.2285445 
C     0.1580655   -1.9946046   -0.6662731 
H     1.0684657   -1.8355356   -1.2258920 
H    -0.7515562   -2.1516111   -1.2285445 
