15
./S22x5/02B
N     1.2754609   -0.6478990   -1.9779099 
C     1.4130529   -1.5536849   -0.9550669 
H     2.4258768   -1.8670779   -0.7468779 
C     0.3575980   -2.0239498   -0.2530570 
C     0.4821290   -3.0179488    0.8521219 
H     0.1757700   -2.5756068    1.7986279 
H    -0.1601690   -3.8770407    0.6639499 
H     1.5112439   -3.3572767    0.9513659 
C    -0.9684709   -1.5298109   -0.5939790 
O    -2.0029278   -1.8396959   -0.0199450 
N    -0.9956919   -0.6383870   -1.6720419 
H    -1.9014059   -0.2501720   -1.8985759 
C     0.0684700   -0.1191760   -2.3763758 
O    -0.0397880    0.7227009   -3.2531078 
H     2.0853288   -0.2760180   -2.4454578 
