18
./S66x8/13.90
C    -0.9063332    0.0113031    1.8616885 
H     0.1273275    0.3397546    1.7861573 
H    -0.9395144   -0.9912495    2.2826750 
H    -1.4478191    0.6676802    2.5384009 
C    -1.6210484   -0.0025212    0.5294473 
O    -2.8065429   -0.3007359    0.4267328 
N    -0.8586700    0.3234473   -0.5416864 
H     0.1041711    0.5911622   -0.4113145 
C    -1.4423663    0.3484504   -1.8641649 
H    -1.9486337   -0.5919993   -2.0701244 
H    -2.1769888    1.1470137   -1.9609076 
H    -0.6516624    0.5003725   -2.5931558 
O     1.9048708    0.6017858   -0.1971445 
H     2.6257256    1.2290854   -0.1067297 
C     2.4239550   -0.7035799    0.0367373 
H     1.5913835   -1.3923676   -0.0688393 
H     3.1900937   -0.9725726   -0.6901435 
H     2.8320520   -0.8050291    1.0423718 
