24
./S66x8/15.90
C    -1.8578234    0.3693658    2.0046836 
H    -2.3396164    1.0556412    2.6966734 
H    -0.8067589    0.6296719    1.9056323 
H    -1.9503773   -0.6316120    2.4218385 
C    -2.6048667    0.4151168    0.6896145 
O    -3.8167705    0.2315144    0.6321450 
N    -1.8263770    0.6659100   -0.3924239 
H    -0.8296452    0.7825574   -0.2606079 
C    -2.3833751    0.7497872   -1.7221683 
H    -3.4483447    0.5534923   -1.6430783 
H    -2.2341222    1.7399337   -2.1507443 
H    -1.9329490    0.0119943   -2.3855735 
C     0.7117313   -1.6810874    0.2706046 
H     1.2699561   -2.5910907    0.0646966 
H    -0.2169605   -1.6876169   -0.2937208 
H     0.4525124   -1.6576408    1.3275456 
C     1.4793673   -0.4266754   -0.0656322 
O     0.9341806    0.6747614   -0.1226045 
N     2.8061255   -0.5954892   -0.2793801 
H     3.1824468   -1.5227349   -0.2026228 
C     3.6933637    0.5109768   -0.5683287 
H     3.0791713    1.4017866   -0.6481524 
H     4.4207782    0.6504425    0.2290746 
H     4.2183539    0.3509951   -1.5074710 
