27
./S66x8/42.90
N     0.2045748   -1.0108878   -1.6908289 
H     0.4592428   -1.9629515   -1.4649074 
C    -1.1702040   -0.7398829   -1.7551919 
O    -1.9848010   -1.6224638   -1.5477747 
C    -1.4678695    0.6449571   -2.0771158 
H    -2.4975107    0.9494521   -2.1507807 
C    -0.4592676    1.5167639   -2.2797845 
H    -0.6295900    2.5554444   -2.5208394 
N     0.8544738    1.1397926   -2.1878448 
H     1.5985378    1.8026807   -2.3287155 
C     1.2631067   -0.1467367   -1.8784314 
O     2.4311496   -0.4679149   -1.7827959 
C     1.0569396   -1.0250072    1.6040733 
H     1.5107921   -1.1170634    0.6160908 
H     1.6014421   -1.6889875    2.2732710 
C     1.1112531    0.4409448    2.0370093 
H     2.0695431    0.9138438    1.8262850 
H     0.9231378    0.5225824    3.1102324 
C    -0.0560985    1.0537593    1.2662381 
H     0.2182058    1.1425409    0.2127665 
H    -0.3405129    2.0449004    1.6178721 
C    -1.1730430    0.0161874    1.4372664 
H    -1.8985823    0.0398012    0.6258945 
H    -1.7171286    0.2208845    2.3595150 
C    -0.4500067   -1.3503604    1.5409233 
H    -0.6926712   -1.9945166    0.6975636 
H    -0.7651129   -1.8777629    2.4400097 
