18
./S66x8/13.125
C    -1.1397444    0.0099261    1.8339273 
H    -0.1060837    0.3383775    1.7583961 
H    -1.1729256   -0.9926266    2.2549137 
H    -1.6812303    0.6663031    2.5106396 
C    -1.8544596   -0.0038983    0.5016861 
O    -3.0399540   -0.3021129    0.3989715 
N    -1.0920812    0.3220702   -0.5694477 
H    -0.1292401    0.5897852   -0.4390757 
C    -1.6757775    0.3470733   -1.8919262 
H    -2.1820448   -0.5933764   -2.0978857 
H    -2.4103999    1.1456366   -1.9886689 
H    -0.8850736    0.4989955   -2.6209171 
O     2.3716931    0.6045399   -0.1416220 
H     3.0925480    1.2318395   -0.0512072 
C     2.8907773   -0.7008258    0.0922598 
H     2.0582058   -1.3896135   -0.0133168 
H     3.6569161   -0.9698185   -0.6346210 
H     3.2988743   -0.8022750    1.0978942 
