24
./S66x8/47.110
C     0.7198040    1.1847014   -2.8003881 
H     1.2938313    2.0858226   -2.9679561 
C     1.3657027   -0.0477661   -2.7143394 
H     2.4411301   -0.1030238   -2.8138091 
C     0.6256552   -1.2089532   -2.4977309 
H     1.1269498   -2.1644172   -2.4268992 
C    -0.7603703   -1.1380541   -2.3692260 
H    -1.3339105   -2.0398126   -2.2029174 
C    -1.4064191    0.0942710   -2.4540267 
H    -2.4818100    0.1500885   -2.3531184 
C    -0.6662820    1.2558964   -2.6687778 
H    -1.1672131    2.2121874   -2.7320203 
C     0.1802588    0.2707006    1.2287297 
H     0.3023852    0.4961841    0.1783032 
C    -0.9108227   -0.4841980    1.6560659 
H    -1.6313273   -0.8407123    0.9323715 
C    -1.0715227   -0.7783233    3.0090160 
H    -1.9186303   -1.3642919    3.3392635 
C    -0.1396402   -0.3172699    3.9375101 
H    -0.2635336   -0.5452361    4.9875176 
C     0.9519449    0.4378321    3.5122698 
H     1.6750640    0.7956653    4.2326524 
C     1.1107488    0.7313171    2.1587785 
H     1.9580068    1.3173919    1.8287311 
