8
./S66x8/20B
C    -0.5544094   -0.1585193    0.0000000 
O    -1.2580558   -1.1609118    0.0000000 
O    -1.0268260    1.0778734    0.0000000 
H    -2.0206345    1.0425288    0.0000000 
C     0.9423286   -0.2036211    0.0000000 
H     1.2799127   -1.2327252    0.0000000 
H     1.3188422    0.3176876   -0.8769505 
H     1.3188422    0.3176876    0.8769505 
