34
./S66x8/36.100
C     0.0000000    0.0000000   -2.6518164 
C     1.2460616    0.7194140   -2.1433213 
H     1.2668633    1.7535897   -2.4938175 
H     1.2713937    0.7340395   -1.0527744 
H     2.1520849    0.2203410   -2.4938175 
C    -1.2460616    0.7194140   -2.1433213 
H    -2.1520849    0.2203410   -2.4938175 
H    -1.2713937    0.7340395   -1.0527744 
H    -1.2668633    1.7535897   -2.4938175 
C    -0.0000000   -1.4388280   -2.1433213 
H    -0.8852215   -1.9739307   -2.4938175 
H    -0.0000000   -1.4680790   -1.0527744 
H     0.8852215   -1.9739307   -2.4938175 
C     0.0000000    0.0000000   -4.1782057 
H     0.8820048   -0.5092257   -4.5663684 
H    -0.8820048   -0.5092257   -4.5663684 
H    -0.0000000    1.0184514   -4.5663684 
C     0.0000000    0.0000000    2.6518164 
C    -1.2460616   -0.7194140    2.1433213 
H    -1.2713937   -0.7340395    1.0527744 
H    -1.2668633   -1.7535897    2.4938175 
H    -2.1520849   -0.2203410    2.4938175 
C     1.2460616   -0.7194140    2.1433213 
H     2.1520849   -0.2203410    2.4938175 
H     1.2668633   -1.7535897    2.4938175 
H     1.2713937   -0.7340395    1.0527744 
C     0.0000000    0.0000000    4.1782057 
H     0.8820048    0.5092257    4.5663684 
H    -0.0000000   -1.0184514    4.5663684 
H    -0.8820048    0.5092257    4.5663684 
C    -0.0000000    1.4388280    2.1433213 
H    -0.8852215    1.9739307    2.4938175 
H     0.8852215    1.9739307    2.4938175 
H    -0.0000000    1.4680790    1.0527744 
