14
./S66x8/10.105
N    -1.5258581    0.2110664   -0.7643189 
H    -0.6972623   -0.3737871   -0.8146610 
H    -2.1876856   -0.1785931   -1.4225559 
C    -2.0858755    0.1315486    0.5830592 
H    -2.9799545    0.7493948    0.6442801 
H    -2.3499622   -0.8756936    0.9205648 
H    -1.3674922    0.5388250    1.2921999 
N     1.6555246   -0.7376153   -0.5986352 
H     1.9517933   -0.4630776   -1.5266205 
H     2.2790743   -1.4853056   -0.3234404 
C     1.8157546    0.3975953    0.3150401 
H     1.5455643    0.0828995    1.3206932 
H     2.8231649    0.8193719    0.3520118 
H     1.1232142    1.1833708    0.0223828 
