23
./S66x8/44.95
C     0.2012031    2.7014615    0.6662662 
H     0.5965323    1.8675335    1.2284965 
H    -0.1929970    3.5361606    1.2281520 
C     0.2012031    2.7014615   -0.6662662 
H     0.5965323    1.8675335   -1.2284965 
H    -0.1929970    3.5361606   -1.2281520 
C     0.2276716   -0.9838821   -2.5329053 
H     0.9669332   -0.1830063   -2.5628685 
H     0.7682445   -1.9296145   -2.5693827 
H    -0.3797743   -0.9107846   -3.4336908 
C    -0.6201543   -0.8934968   -1.2709298 
H    -1.3661653   -1.6915527   -1.2708616 
H    -1.1742611    0.0476229   -1.2621894 
C     0.2130191   -0.9904290    0.0000000 
H     0.7664891   -1.9342552    0.0000000 
H     0.9660263   -0.1961988    0.0000000 
C    -0.6201543   -0.8934968    1.2709298 
H    -1.3661653   -1.6915527    1.2708616 
H    -1.1742611    0.0476229    1.2621894 
C     0.2276716   -0.9838821    2.5329053 
H     0.9669332   -0.1830063    2.5628685 
H    -0.3797743   -0.9107846    3.4336908 
H     0.7682445   -1.9296145    2.5693827 
