8
./S66x8/51.200
C    -0.6059217    0.0000000   -3.5992590 
H    -1.6679403    0.0000000   -3.6019194 
C     0.6059217    0.0000000   -3.5992590 
H     1.6679403    0.0000000   -3.6019194 
C     0.0000000    0.0000000    2.9951526 
H     0.0000000    0.0000000    1.9313194 
C     0.0000000    0.0000000    4.2072242 
H     0.0000000    0.0000000    5.2686607 
