30
./S22x5/02_1.0
N     0.2793010    2.4068388   -0.6057520 
C    -1.0848569    2.4457458   -0.5511610 
H    -1.6594399    3.0230288   -1.2560899 
N    -1.5977119    1.7179879    0.4287540 
C    -0.4897250    1.1714359    1.0301909 
C    -0.3461370    0.2914710    2.1172338 
N    -1.4187089   -0.1677770    2.8101438 
H    -1.2388749   -0.9594799    3.4047577 
H    -2.2918728   -0.1788220    2.3073618 
N     0.8857629   -0.0700760    2.4919488 
C     1.9352349    0.4072880    1.7968019 
H     2.9060328    0.0788410    2.1458178 
N     1.9409779    1.2242019    0.7402199 
C     0.6952189    1.5779859    0.4063980 
H     0.8610069    2.8298038   -1.3104499 
N     1.2754609   -0.6478990   -1.9779099 
C     1.4130529   -1.5536849   -0.9550669 
H     2.4258768   -1.8670779   -0.7468779 
C     0.3575980   -2.0239498   -0.2530570 
C     0.4821290   -3.0179488    0.8521219 
H     0.1757700   -2.5756068    1.7986279 
H    -0.1601690   -3.8770407    0.6639499 
H     1.5112439   -3.3572767    0.9513659 
C    -0.9684709   -1.5298109   -0.5939790 
O    -2.0029278   -1.8396959   -0.0199450 
N    -0.9956919   -0.6383870   -1.6720419 
H    -1.9014059   -0.2501720   -1.8985759 
C     0.0684700   -0.1191760   -2.3763758 
O    -0.0397880    0.7227009   -3.2531078 
H     2.0853288   -0.2760180   -2.4454578 
