34
./S66x8/35.95
C     0.3424096    2.2272661   -2.5327613 
H     0.8917698    3.1680314   -2.5662949 
H     1.0721132    1.4179826   -2.5617679 
H    -0.2649283    2.1617672   -3.4341613 
C    -0.5083110    2.1441851   -1.2722612 
H    -1.0743741    1.2095477   -1.2700360 
H    -1.2467789    2.9491565   -1.2710266 
C     0.3240947    2.2289645    0.0000000 
H     1.0683093    1.4264334    0.0000000 
H     0.8883514    3.1663243    0.0000000 
C    -0.5083110    2.1441851    1.2722612 
H    -1.0743741    1.2095477    1.2700360 
H    -1.2467789    2.9491565    1.2710266 
C     0.3424096    2.2272661    2.5327613 
H     0.8917698    3.1680314    2.5662949 
H    -0.2649283    2.1617672    3.4341613 
H     1.0721132    1.4179826    2.5617679 
C    -0.0427561   -2.1996246    0.0000000 
C     0.1227206   -3.7168074    0.0000000 
H    -0.3405528   -4.1578611   -0.8837977 
H     1.1782838   -3.9922408    0.0000000 
H    -0.3405528   -4.1578611    0.8837977 
C     0.6201141   -1.6144305   -1.2443451 
H     0.5128640   -0.5292372   -1.2668582 
H     1.6853477   -1.8496976   -1.2642448 
H     0.1678092   -2.0170085   -2.1519955 
C     0.6201141   -1.6144305    1.2443451 
H     0.5128640   -0.5292372    1.2668582 
H     1.6853477   -1.8496976    1.2642448 
H     0.1678092   -2.0170085    2.1519955 
C    -1.5286588   -1.8497507    0.0000000 
H    -2.0260648   -2.2571711    0.8780955 
H    -1.6731803   -0.7683602    0.0000000 
H    -2.0260648   -2.2571711   -0.8780955 
