18
./S66x8/64.105
C     1.6794108    0.2875589   -1.1856943 
H     1.6912693    1.2437842   -1.7038891 
H     2.3650152   -0.3990084   -1.6733925 
H     2.0194416    0.4339066   -0.1618251 
C     0.3115237   -0.3483149   -1.1412440 
O     0.1489486   -1.5250697   -0.8439662 
N    -0.7238063    0.4870585   -1.4337303 
H    -0.5193154    1.4511031   -1.6216205 
C    -2.1003162    0.0505150   -1.3607529 
H    -2.0950416   -1.0348611   -1.3548941 
H    -2.5908472    0.4003667   -0.4522018 
H    -2.6580480    0.4052974   -2.2240668 
C     0.0299093    0.3009388    2.4921385 
H     0.0250277    1.0431126    3.2780211 
H    -0.6186234    0.4687074    1.6434550 
C     0.7984196   -0.7860231    2.5619482 
H     1.4437246   -0.9578488    3.4120760 
H     0.7933076   -1.5212233    1.7696389 
