25
./S66x8/61.105
C    -2.4314517   -0.1241869   -0.8869694 
H    -2.6468245   -0.7170386   -1.7758696 
H    -2.3824306   -0.8075583   -0.0394799 
H    -3.2681324    0.5558315   -0.7309032 
C    -1.1178049    0.6301660   -1.0489041 
H    -0.9448060    1.2613199   -0.1736006 
H    -1.1822836    1.3063333   -1.9047616 
C     0.0703954   -0.3038222   -1.2383175 
H     0.1533376   -0.9642510   -0.3702653 
H    -0.1169562   -0.9551107   -2.0970931 
C     1.3868949    0.4320626   -1.4493038 
H     1.5555319    1.1186599   -0.6158567 
H     1.3099879    1.0546314   -2.3435968 
C     2.5714696   -0.5159728   -1.5808440 
H     2.4326348   -1.1923258   -2.4240606 
H     3.5053943    0.0225812   -1.7342719 
H     2.6790873   -1.1265219   -0.6842281 
C    -0.6779404   -0.2869032    2.5989357 
O    -1.1005543   -1.4020835    2.4017891 
O    -1.4916327    0.7720623    2.8315251 
H    -2.3923948    0.4176818    2.7909894 
C     0.7623267    0.1227629    2.6161411 
H     1.3881498   -0.7474181    2.4579859 
H     0.9383641    0.8570365    1.8330165 
H     0.9996379    0.5920638    3.5679434 
