18
./S66x8/31.150
N    -0.0567115   -1.2384026   -1.6310624 
H    -0.0590599   -2.2490151   -1.6152030 
C    -1.3146510   -0.6201977   -1.6609987 
O    -2.3330578   -1.2908763   -1.6708535 
C    -1.2426563    0.8297269   -1.6772490 
H    -2.1585768    1.3931391   -1.7197991 
C    -0.0410322    1.4395145   -1.6313198 
H     0.0645285    2.5141544   -1.6331424 
N     1.1286913    0.7319611   -1.5731800 
H     2.0178825    1.1984508   -1.5093319 
C     1.1873482   -0.6501542   -1.5492495 
O     2.2305601   -1.2695096   -1.4708390 
C     0.7606939   -0.1816931    3.2454637 
H     1.2778117   -1.0526810    2.8682371 
H     1.3663049    0.6053009    3.6727781 
C    -0.5680826   -0.0811027    3.1962168 
H    -1.1800855   -0.8685823    2.7793161 
H    -1.0799076    0.7899669    3.5802166 
