17
./S66x8/33.150
N     1.5171617    1.6689828    0.0000000 
C     0.8152807    1.7084602   -1.1400293 
H     1.3947702    1.6747311   -2.0546784 
C    -0.5737854    1.7938799   -1.1930802 
H    -1.0780247    1.8259309   -2.1485917 
C    -1.2858341    1.8412634    0.0000000 
H    -2.3649167    1.9096163    0.0000000 
C    -0.5737854    1.7938799    1.1930802 
H    -1.0780247    1.8259309    2.1485917 
C     0.8152807    1.7084602    1.1400293 
H     1.3947702    1.6747311    2.0546784 
C     0.1692584   -3.2383320    0.6662270 
H     1.0796586   -3.0792629    1.2258459 
H    -0.7403633   -3.3953385    1.2284984 
C     0.1692584   -3.2383320   -0.6662270 
H     1.0796586   -3.0792629   -1.2258459 
H    -0.7403633   -3.3953385   -1.2284984 
