20
./S66x8/52.110
C     0.9047592    0.9165850   -1.8517060 
H     1.6005084    1.7414225   -1.7836773 
C     1.3717359   -0.3716417   -2.1107281 
H     2.4302033   -0.5457175   -2.2467322 
C     0.4748064   -1.4361472   -2.1873021 
H     0.8376401   -2.4358967   -2.3817316 
C    -0.8896480   -1.2121124   -2.0088635 
H    -1.5850812   -2.0381327   -2.0656031 
C    -1.3569084    0.0759043   -1.7494770 
H    -2.4137173    0.2495078   -1.6011587 
C    -0.4597663    1.1412709   -1.6681183 
H    -0.8197764    2.1352605   -1.4449626 
C    -0.1583193    0.5338539    2.4127144 
O    -0.6265089    1.5833005    2.0334540 
O     0.2448933   -0.4437094    1.5734291 
H     0.0761885   -0.1177958    0.6720239 
C     0.0516350    0.1368668    3.8441202 
H    -0.2583311    0.9462034    4.4941090 
H    -0.5244457   -0.7597572    4.0610713 
H     1.1001325   -0.0992653    4.0091387 
