10
./S22x5/05_1.0
C     0.0000000   -0.0001400    1.8591609 
H    -0.8885509    0.5130600    1.4946849 
H     0.8885509    0.5130600    1.4946849 
H     0.0000000   -1.0263389    1.4948679 
H     0.0000000    0.0000890    2.9482838 
C     0.0000000    0.0001400   -1.8591609 
H     0.0000000   -0.0000890   -2.9482838 
H    -0.8885509   -0.5130600   -1.4946849 
H     0.8885509   -0.5130600   -1.4946849 
H     0.0000000    1.0263389   -1.4948679 
