23
./S66x8/29.105
N     1.1461282   -0.0754554   -1.5860696 
C     0.5473079   -1.2625802   -1.7623289 
H     1.1868508   -2.1336546   -1.6964877 
C    -0.8159411   -1.4127807   -2.0046147 
H    -1.2350429   -2.4010005   -2.1291639 
C    -1.6124948   -0.2740714   -2.0722476 
H    -2.6756398   -0.3500859   -2.2545364 
C    -1.0082495    0.9665050   -1.8959576 
H    -1.5834414    1.8803691   -1.9274247 
C     0.3630915    1.0119775   -1.6584319 
H     0.8600674    1.9639206   -1.5182327 
N    -0.7640807   -0.3802265    1.5354707 
H    -1.6589697   -0.8120900    1.3508672 
C    -0.7638258    1.0175833    1.6284817 
O    -1.8037089    1.6457831    1.5136316 
C     0.5556689    1.5766646    1.8560448 
H     0.6569853    2.6438868    1.9519130 
C     1.6255425    0.7579723    1.9275648 
H     2.6294216    1.1266370    2.0759914 
N     1.5074814   -0.5993210    1.8150102 
H     2.3209174   -1.1915083    1.8068425 
C     0.3070344   -1.2465534    1.5886285 
O     0.2148972   -2.4519715    1.4550492 
