12
./S66x8/24A
C     1.2064796    0.6965613    0.0000000 
H     2.1430837    1.2373100    0.0000000 
C     1.2064796   -0.6965613    0.0000000 
H     2.1430837   -1.2373100    0.0000000 
C     0.0000000   -1.3931227    0.0000000 
H     0.0000000   -2.4746199    0.0000000 
C    -1.2064796   -0.6965613    0.0000000 
H    -2.1430837   -1.2373100    0.0000000 
C    -1.2064796    0.6965613    0.0000000 
H    -2.1430837    1.2373100    0.0000000 
C     0.0000000    1.3931227    0.0000000 
H     0.0000000    2.4746199    0.0000000 
