12
./S66x8/47B
C    -1.2085104    0.6977338    0.0000000 
H    -2.1449153    1.2383674    0.0000000 
C    -1.2085104   -0.6977338    0.0000000 
H    -2.1449153   -1.2383674    0.0000000 
C     0.0000000   -1.3954676    0.0000000 
H     0.0000000   -2.4767349    0.0000000 
C     1.2085104   -0.6977338    0.0000000 
H     2.1449153   -1.2383674    0.0000000 
C     1.2085104    0.6977338    0.0000000 
H     2.1449153    1.2383674    0.0000000 
C     0.0000000    1.3954676    0.0000000 
H     0.0000000    2.4767349    0.0000000 
