12
./S22x5/09_0.9
C    -0.6041201   -1.0703462    0.0000000 
O     0.0000000    0.0000000    0.0000000 
N    -0.0352737   -2.2862774    0.0000000 
H    -0.6208475   -3.1009156    0.0000000 
H     0.9823565   -2.3871035    0.0000000 
H    -1.7041853   -1.0986074    0.0000000 
C     3.2429824   -1.3167574    0.0000000 
O     2.6388623   -2.3871035    0.0000000 
N     2.6741360   -0.1008261    0.0000000 
H     3.2597098    0.7138121    0.0000000 
H     1.6565058    0.0000000    0.0000000 
H     4.3430476   -1.2884961    0.0000000 
