29
./S66x8/43.105
N     0.6611817   -0.9988993   -2.3163080 
H     0.4442903   -1.9594872   -2.0878222 
C    -0.3973557   -0.2353225   -2.8275599 
O    -1.4956712   -0.7363898   -2.9986311 
C    -0.0317742    1.1432886   -3.1025863 
H    -0.7746431    1.8038237   -3.5150633 
C     1.2186425    1.5699483   -2.8316904 
H     1.5369507    2.5858840   -3.0123908 
N     2.1692302    0.7386149   -2.3031419 
H     3.0904364    1.0759147   -2.0787959 
C     1.9378836   -0.5911651   -1.9939119 
O     2.7789068   -1.3119102   -1.4936364 
C    -0.6553807   -0.1816608    1.7966688 
C    -1.9721268    0.5596280    2.0115417 
H    -2.6791982   -0.0585782    2.5664041 
H    -1.8126273    1.4798126    2.5757268 
H    -2.4298366    0.8211250    1.0563881 
C    -0.0399440   -0.5350987    3.1479463 
H     0.9032181   -1.0674720    3.0171645 
H     0.1570769    0.3646430    3.7327484 
H    -0.7112381   -1.1728357    3.7246830 
C     0.3097436    0.7118170    1.0208797 
H     1.2583141    0.1992223    0.8505258 
H     0.5150338    1.6299535    1.5743061 
H    -0.1126518    0.9903036    0.0534153 
C    -0.9166978   -1.4616952    1.0063039 
H    -1.3804362   -1.2398615    0.0436793 
H     0.0158785   -2.0000941    0.8266673 
H    -1.5872057   -2.1235091    1.5564889 
