10
./S22x5/08_0.9
C    -1.4349442   -1.2366439    0.0000000 
O    -0.9950095    0.0018767    0.0000000 
O    -0.7520306   -2.2484654    0.0000000 
H    -2.5276604   -1.2769505    0.0000000 
H     0.0000000    0.0000000    0.0000000 
C     2.1862053   -1.0118215    0.0000000 
O     1.7462706   -2.2503421    0.0000000 
O     1.5032918    0.0000000    0.0000000 
H     3.2789215   -0.9715149    0.0000000 
H     0.7512612   -2.2484654    0.0000000 
