17
./S66x8/19.110
O    -3.0073657    0.4755834    0.0000000 
H    -2.0361139    0.5104189    0.0000000 
C    -3.3576449   -0.8904398    0.0000000 
H    -4.4431023   -0.9539260    0.0000000 
H    -2.9953128   -1.4185257   -0.8825819 
H    -2.9953128   -1.4185257    0.8825819 
N     0.1088249    0.3926797    0.0000000 
C     0.8042693    0.3679008   -1.1472618 
H     0.2190558    0.3908510   -2.0577722 
C     2.1938667    0.3181434   -1.1970535 
H     2.7004492    0.3005651   -2.1512401 
C     2.9052045    0.2927895    0.0000000 
H     3.9855409    0.2550250    0.0000000 
C     2.1938667    0.3181434    1.1970535 
H     2.7004492    0.3005651    2.1512401 
C     0.8042693    0.3679008    1.1472618 
H     0.2190558    0.3908510    2.0577722 
