15
./S66x8/54.110
C     0.8207570   -0.5670548   -1.2075569 
H     0.9368014   -1.0947796   -2.1441446 
C     0.5185526    0.7938536   -1.2078954 
H     0.3975740    1.3210278   -2.1440541 
C     0.3678991    1.4747278    0.0000000 
H     0.1320748    2.5299992    0.0000000 
C     0.5185526    0.7938536    1.2078954 
H     0.3975740    1.3210278    2.1440541 
C     0.8207570   -0.5670548    1.2075569 
H     0.9368014   -1.0947796    2.1441446 
C     0.9722581   -1.2471214    0.0000000 
H     1.2090955   -2.3023537    0.0000000 
O    -3.0269342   -0.2627382    0.0000000 
H    -2.8621302   -1.2074597    0.0000000 
H    -2.1396333    0.1088521    0.0000000 
