24
./S66x8/17.110
N    -1.5776141    1.1665875    0.0000000 
H    -0.5491924    1.2178243    0.0000000 
C    -2.1444395   -0.0966070    0.0000000 
O    -1.4417139   -1.1096977    0.0000000 
C    -3.5912373   -0.1185119    0.0000000 
H    -4.0972054   -1.0680153    0.0000000 
C    -4.2696350    1.0479106    0.0000000 
H    -5.3485121    1.0946038    0.0000000 
N    -3.6224518    2.2492288    0.0000000 
H    -4.1314530    3.1176972    0.0000000 
C    -2.2390936    2.3808396    0.0000000 
O    -1.6874587    3.4608551    0.0000000 
N     3.4825879    0.0484039    0.0000000 
H     3.9298316    0.9549771    0.0000000 
C     4.3386356   -1.0662138    0.0000000 
O     5.5480877   -0.9145094    0.0000000 
C     3.6244172   -2.3283874    0.0000000 
H     4.1910018   -3.2434181    0.0000000 
C     2.2742482   -2.3322053    0.0000000 
H     1.6972850   -3.2451700    0.0000000 
N     1.5362568   -1.1813244    0.0000000 
H     0.5099205   -1.2027672    0.0000000 
C     2.1090277    0.0633406    0.0000000 
O     1.4587068    1.1045589    0.0000000 
