23
./S66x8/49.110
C     0.8509974    1.1090416   -2.1948385 
H     1.5123262    1.9543447   -2.0609110 
C     1.3814295   -0.1663324   -2.3831325 
H     2.4531039   -0.3103496   -2.3914411 
C     0.5299883   -1.2559214   -2.5611011 
H     0.9416474   -2.2449035   -2.7093703 
C    -0.8517955   -1.0703405   -2.5479093 
H    -1.5124610   -1.9153351   -2.6859301 
C    -1.3821255    0.2047573   -2.3566799 
H    -2.4537973    0.3485388   -2.3442611 
C    -0.5306930    1.2945452   -2.1815546 
H    -0.9430041    2.2839292   -2.0369270 
N     0.0255396    0.3467517    4.1577227 
C     0.1802234    1.2847133    3.2128459 
H     0.3219942    2.2972393    3.5707476 
C     0.1660141    1.0174235    1.8463464 
H     0.2962542    1.8184493    1.1324610 
C    -0.0183242   -0.2942061    1.4210560 
H    -0.0348907   -0.5373248    0.3677081 
C    -0.1801731   -1.2792405    2.3899151 
H    -0.3267162   -2.3144514    2.1151436 
C    -0.1509707   -0.9119074    3.7330046 
H    -0.2745668   -1.6594213    4.5071056 
