16
./S66x8/50.110
C    -1.2088300   -0.6979184   -1.1075624 
H    -2.1452439   -1.2385572   -1.1053154 
C    -1.2088300    0.6979184   -1.1075624 
H    -2.1452439    1.2385572   -1.1053154 
C     0.0000000    1.3958367   -1.1075624 
H     0.0000000    2.4771143   -1.1053154 
C     1.2088300    0.6979184   -1.1075624 
H     2.1452439    1.2385572   -1.1053154 
C     1.2088300   -0.6979184   -1.1075624 
H     2.1452439   -1.2385572   -1.1053154 
C     0.0000000   -1.3958367   -1.1075624 
H     0.0000000   -2.4771143   -1.1053154 
C     0.0000000    0.0000000    2.7137767 
H     0.0000000    0.0000000    1.6495647 
C     0.0000000    0.0000000    3.9262997 
H     0.0000000    0.0000000    4.9876259 
