16
./S66x8/32.150
N    -0.0669540   -1.2222608   -1.2379291 
H    -0.0688165   -2.2319832   -1.1928865 
C    -1.3254601   -0.6094149   -1.3125256 
O    -2.3403970   -1.2821708   -1.3710421 
C    -1.2598592    0.8417820   -1.3144480 
H    -2.1758498    1.4010630   -1.3950418 
C    -0.0645805    1.4571575   -1.2137440 
H     0.0366101    2.5321599   -1.2045197 
N     1.1044259    0.7533211   -1.1127704 
H     1.9851548    1.2230098   -0.9863191 
C     1.1638466   -0.6280746   -1.0717732 
O     2.2031311   -1.2407354   -0.9127669 
C     0.7767553   -0.4353709    3.5318093 
H     1.7725736   -0.7893567    3.4175906 
C    -0.3678488   -0.0489132    3.6380011 
H    -1.3727314    0.2797871    3.7383653 
